/*---------------------------------------------------------------------------*\
| =========                 |                                                 |
| \\      /  F ield         | OpenFOAM: The Open Source CFD Toolbox           |
|  \\    /   O peration     | Version:  2212                                  |
|   \\  /    A nd           | Website:  www.openfoam.com                      |
|    \\/     M anipulation  |                                                 |
\*---------------------------------------------------------------------------*/
Build  : _fd8c5e00-20221221 OPENFOAM=2212 version=2212
Arch   : "LSB;label=32;scalar=64"
Exec   : overPimpleDyMFoam
Date   : Apr 02 2023
Time   : 05:51:12
Host   : RazorPC
PID    : 11372
I/O    : uncollated
Case   : /mnt/d/Main/HMC/Senior/S2/Thesis/model/all
nProcs : 1
trapFpe: Floating point exception trapping enabled (FOAM_SIGFPE).
fileModificationChecking : Monitoring run-time modified files using timeStampMaster (fileModificationSkew 5, maxFileModificationPolls 20)
allowSystemOperations : Allowing user-supplied system call operations

// * * * * * * * * * * * * * * * * * * * * * * * * * * * * * * * * * * * * * //
Create time

Create mesh for time = 0

Selecting dynamicFvMesh dynamicOversetFvMesh
Selecting motion solver: multiSolidBodyMotionSolver
Applying motion to entire mesh
Selecting solid-body motion function tabulated6DoFMotion
Applying solid body motion tabulated6DoFMotion to 12177 points of cellZone leftWing
Selecting solid-body motion function tabulated6DoFMotion
Applying solid body motion tabulated6DoFMotion to 12177 points of cellZone rightWing

PIMPLE: Operating solver in PISO mode

Reading field p

Reading field U

Reading/calculating face flux field phi

Creating cellMask field to block out hole cells

Creating interpolatedCells field 

Selecting incompressible transport model Newtonian
Selecting turbulence model type RAS
Selecting RAS turbulence model kOmegaSST
Selecting patchDistMethod meshWave
RAS
{
    RASModel        kOmegaSST;
    turbulence      on;
    printCoeffs     on;
    alphaK1         0.85;
    alphaK2         1;
    alphaOmega1     0.5;
    alphaOmega2     0.856;
    gamma1          0.5555555556;
    gamma2          0.44;
    beta1           0.075;
    beta2           0.0828;
    betaStar        0.09;
    a1              0.31;
    b1              1;
    c1              10;
    F3              false;
    decayControl    false;
    kInf            0;
    omegaInf        0;
}

Reading/calculating face velocity Uf

No MRF models present

No finite volume options present
Courant Number mean: 2.008295513 max: 20

Starting time loop

surfaceFieldValue inMassFlow:
    operation     = sum


surfaceFieldValue outMassFlow:
    operation     = sum


forces forces_object:
--> FOAM Warning : 
    From Foam::labelHashSet Foam::polyBoundaryMesh::patchSet(const Foam::UList<Foam::wordRe>&, bool, bool) const
    in file meshes/polyMesh/polyBoundaryMesh/polyBoundaryMesh.C at line 910
    Cannot find any patch or group names matching leftWing
--> FOAM Warning : 
    From Foam::labelHashSet Foam::polyBoundaryMesh::patchSet(const Foam::UList<Foam::wordRe>&, bool, bool) const
    in file meshes/polyMesh/polyBoundaryMesh/polyBoundaryMesh.C at line 910
    Cannot find any patch or group names matching rightWing
--> FOAM Warning : 
    From Foam::labelHashSet Foam::polyBoundaryMesh::patchSet(const Foam::UList<Foam::wordRe>&, bool, bool) const
    in file meshes/polyMesh/polyBoundaryMesh/polyBoundaryMesh.C at line 910
    Cannot find any patch or group names matching body
    rho: rhoInf
    Freestream density (rhoInf) set to 1
    Not including porosity effects

forceCoeffs forceCoeffs_object:
--> FOAM Warning : 
    From Foam::labelHashSet Foam::polyBoundaryMesh::patchSet(const Foam::UList<Foam::wordRe>&, bool, bool) const
    in file meshes/polyMesh/polyBoundaryMesh/polyBoundaryMesh.C at line 910
    Cannot find any patch or group names matching leftWing
--> FOAM Warning : 
    From Foam::labelHashSet Foam::polyBoundaryMesh::patchSet(const Foam::UList<Foam::wordRe>&, bool, bool) const
    in file meshes/polyMesh/polyBoundaryMesh/polyBoundaryMesh.C at line 910
    Cannot find any patch or group names matching rightWing
--> FOAM Warning : 
    From Foam::labelHashSet Foam::polyBoundaryMesh::patchSet(const Foam::UList<Foam::wordRe>&, bool, bool) const
    in file meshes/polyMesh/polyBoundaryMesh/polyBoundaryMesh.C at line 910
    Cannot find any patch or group names matching body
    rho: rhoInf
    Freestream density (rhoInf) set to 1
    Not including porosity effects
    magUInf: 1
    lRef   : 1
    Aref   : 1
    rhoInf : 1
    Selecting all coefficients
    - Drag force: Cd
    - Drag force front: Cd(f)
    - Drag force rear: Cd(r)
    - Lift force: Cl
    - Lift force front: Cl(f)
    - Lift force rear: Cl(r)
    - Pitch moment: CmPitch
    - Roll moment: CmRoll
    - Yaw moment: CmYaw
    - Side force: Cs
    - Side force front: Cs(f)
    - Side force rear: Cs(r)


Courant Number mean: 2.008295513 max: 20
Time = 0.05

inverseDistance : detected 124 mesh regions
    zone:0 nCells:42875  voxels:(39 39 39) bb:(-0.5830030311 -0.8750030311 -0.8750030311) (1.167003031 0.8750030311 0.8750030311)
    zone:1 nCells:10240  voxels:(39 39 39) bb:(-0.08244466726 -0.03608835389 -0.01795411051) (0.08244466726 0.1251727496 0.1970182622)
    zone:2 nCells:0  voxels:(39 39 39) bb:(-4.083003031 -4.375003031 -4.375003031) (-2.332996969 -2.624996969 -2.624996969)
    zone:3 nCells:0  voxels:(39 39 39) bb:(-4.083003031 -4.375003031 -4.375003031) (-2.332996969 -2.624996969 -2.624996969)
    zone:4 nCells:0  voxels:(39 39 39) bb:(-4.083003031 -4.375003031 -4.375003031) (-2.332996969 -2.624996969 -2.624996969)
    zone:5 nCells:0  voxels:(39 39 39) bb:(-4.083003031 -4.375003031 -4.375003031) (-2.332996969 -2.624996969 -2.624996969)
    zone:6 nCells:0  voxels:(39 39 39) bb:(-4.083003031 -4.375003031 -4.375003031) (-2.332996969 -2.624996969 -2.624996969)
    zone:7 nCells:0  voxels:(39 39 39) bb:(-4.083003031 -4.375003031 -4.375003031) (-2.332996969 -2.624996969 -2.624996969)
    zone:8 nCells:0  voxels:(39 39 39) bb:(-4.083003031 -4.375003031 -4.375003031) (-2.332996969 -2.624996969 -2.624996969)
    zone:9 nCells:0  voxels:(39 39 39) bb:(-4.083003031 -4.375003031 -4.375003031) (-2.332996969 -2.624996969 -2.624996969)
    zone:10 nCells:0  voxels:(39 39 39) bb:(-4.083003031 -4.375003031 -4.375003031) (-2.332996969 -2.624996969 -2.624996969)
    zone:11 nCells:0  voxels:(39 39 39) bb:(-4.083003031 -4.375003031 -4.375003031) (-2.332996969 -2.624996969 -2.624996969)
    zone:12 nCells:0  voxels:(39 39 39) bb:(-4.083003031 -4.375003031 -4.375003031) (-2.332996969 -2.624996969 -2.624996969)
    zone:13 nCells:0  voxels:(39 39 39) bb:(-4.083003031 -4.375003031 -4.375003031) (-2.332996969 -2.624996969 -2.624996969)
    zone:14 nCells:0  voxels:(39 39 39) bb:(-4.083003031 -4.375003031 -4.375003031) (-2.332996969 -2.624996969 -2.624996969)
    zone:15 nCells:0  voxels:(39 39 39) bb:(-4.083003031 -4.375003031 -4.375003031) (-2.332996969 -2.624996969 -2.624996969)
    zone:16 nCells:0  voxels:(39 39 39) bb:(-4.083003031 -4.375003031 -4.375003031) (-2.332996969 -2.624996969 -2.624996969)
    zone:17 nCells:0  voxels:(39 39 39) bb:(-4.083003031 -4.375003031 -4.375003031) (-2.332996969 -2.624996969 -2.624996969)
    zone:18 nCells:0  voxels:(39 39 39) bb:(-4.083003031 -4.375003031 -4.375003031) (-2.332996969 -2.624996969 -2.624996969)
    zone:19 nCells:0  voxels:(39 39 39) bb:(-4.083003031 -4.375003031 -4.375003031) (-2.332996969 -2.624996969 -2.624996969)
    zone:20 nCells:0  voxels:(39 39 39) bb:(-4.083003031 -4.375003031 -4.375003031) (-2.332996969 -2.624996969 -2.624996969)
    zone:21 nCells:0  voxels:(39 39 39) bb:(-4.083003031 -4.375003031 -4.375003031) (-2.332996969 -2.624996969 -2.624996969)
    zone:22 nCells:0  voxels:(39 39 39) bb:(-4.083003031 -4.375003031 -4.375003031) (-2.332996969 -2.624996969 -2.624996969)
    zone:23 nCells:0  voxels:(39 39 39) bb:(-4.083003031 -4.375003031 -4.375003031) (-2.332996969 -2.624996969 -2.624996969)
    zone:24 nCells:0  voxels:(39 39 39) bb:(-4.083003031 -4.375003031 -4.375003031) (-2.332996969 -2.624996969 -2.624996969)
    zone:25 nCells:0  voxels:(39 39 39) bb:(-4.083003031 -4.375003031 -4.375003031) (-2.332996969 -2.624996969 -2.624996969)
    zone:26 nCells:0  voxels:(39 39 39) bb:(-4.083003031 -4.375003031 -4.375003031) (-2.332996969 -2.624996969 -2.624996969)
    zone:27 nCells:0  voxels:(39 39 39) bb:(-4.083003031 -4.375003031 -4.375003031) (-2.332996969 -2.624996969 -2.624996969)
    zone:28 nCells:0  voxels:(39 39 39) bb:(-4.083003031 -4.375003031 -4.375003031) (-2.332996969 -2.624996969 -2.624996969)
    zone:29 nCells:0  voxels:(39 39 39) bb:(-4.083003031 -4.375003031 -4.375003031) (-2.332996969 -2.624996969 -2.624996969)
    zone:30 nCells:0  voxels:(39 39 39) bb:(-4.083003031 -4.375003031 -4.375003031) (-2.332996969 -2.624996969 -2.624996969)
    zone:31 nCells:0  voxels:(39 39 39) bb:(-4.083003031 -4.375003031 -4.375003031) (-2.332996969 -2.624996969 -2.624996969)
    zone:32 nCells:0  voxels:(39 39 39) bb:(-4.083003031 -4.375003031 -4.375003031) (-2.332996969 -2.624996969 -2.624996969)
    zone:33 nCells:0  voxels:(39 39 39) bb:(-4.083003031 -4.375003031 -4.375003031) (-2.332996969 -2.624996969 -2.624996969)
    zone:34 nCells:0  voxels:(39 39 39) bb:(-4.083003031 -4.375003031 -4.375003031) (-2.332996969 -2.624996969 -2.624996969)
    zone:35 nCells:0  voxels:(39 39 39) bb:(-4.083003031 -4.375003031 -4.375003031) (-2.332996969 -2.624996969 -2.624996969)
    zone:36 nCells:0  voxels:(39 39 39) bb:(-4.083003031 -4.375003031 -4.375003031) (-2.332996969 -2.624996969 -2.624996969)
    zone:37 nCells:0  voxels:(39 39 39) bb:(-4.083003031 -4.375003031 -4.375003031) (-2.332996969 -2.624996969 -2.624996969)
    zone:38 nCells:0  voxels:(39 39 39) bb:(-4.083003031 -4.375003031 -4.375003031) (-2.332996969 -2.624996969 -2.624996969)
    zone:39 nCells:0  voxels:(39 39 39) bb:(-4.083003031 -4.375003031 -4.375003031) (-2.332996969 -2.624996969 -2.624996969)
    zone:40 nCells:0  voxels:(39 39 39) bb:(-4.083003031 -4.375003031 -4.375003031) (-2.332996969 -2.624996969 -2.624996969)
    zone:41 nCells:0  voxels:(39 39 39) bb:(-4.083003031 -4.375003031 -4.375003031) (-2.332996969 -2.624996969 -2.624996969)
    zone:42 nCells:0  voxels:(39 39 39) bb:(-4.083003031 -4.375003031 -4.375003031) (-2.332996969 -2.624996969 -2.624996969)
    zone:43 nCells:0  voxels:(39 39 39) bb:(-4.083003031 -4.375003031 -4.375003031) (-2.332996969 -2.624996969 -2.624996969)
    zone:44 nCells:0  voxels:(39 39 39) bb:(-4.083003031 -4.375003031 -4.375003031) (-2.332996969 -2.624996969 -2.624996969)
    zone:45 nCells:0  voxels:(39 39 39) bb:(-4.083003031 -4.375003031 -4.375003031) (-2.332996969 -2.624996969 -2.624996969)
    zone:46 nCells:0  voxels:(39 39 39) bb:(-4.083003031 -4.375003031 -4.375003031) (-2.332996969 -2.624996969 -2.624996969)
    zone:47 nCells:0  voxels:(39 39 39) bb:(-4.083003031 -4.375003031 -4.375003031) (-2.332996969 -2.624996969 -2.624996969)
    zone:48 nCells:0  voxels:(39 39 39) bb:(-4.083003031 -4.375003031 -4.375003031) (-2.332996969 -2.624996969 -2.624996969)
    zone:49 nCells:0  voxels:(39 39 39) bb:(-4.083003031 -4.375003031 -4.375003031) (-2.332996969 -2.624996969 -2.624996969)
    zone:50 nCells:0  voxels:(39 39 39) bb:(-4.083003031 -4.375003031 -4.375003031) (-2.332996969 -2.624996969 -2.624996969)
    zone:51 nCells:0  voxels:(39 39 39) bb:(-4.083003031 -4.375003031 -4.375003031) (-2.332996969 -2.624996969 -2.624996969)
    zone:52 nCells:0  voxels:(39 39 39) bb:(-4.083003031 -4.375003031 -4.375003031) (-2.332996969 -2.624996969 -2.624996969)
    zone:53 nCells:0  voxels:(39 39 39) bb:(-4.083003031 -4.375003031 -4.375003031) (-2.332996969 -2.624996969 -2.624996969)
    zone:54 nCells:0  voxels:(39 39 39) bb:(-4.083003031 -4.375003031 -4.375003031) (-2.332996969 -2.624996969 -2.624996969)
    zone:55 nCells:0  voxels:(39 39 39) bb:(-4.083003031 -4.375003031 -4.375003031) (-2.332996969 -2.624996969 -2.624996969)
    zone:56 nCells:0  voxels:(39 39 39) bb:(-4.083003031 -4.375003031 -4.375003031) (-2.332996969 -2.624996969 -2.624996969)
    zone:57 nCells:0  voxels:(39 39 39) bb:(-4.083003031 -4.375003031 -4.375003031) (-2.332996969 -2.624996969 -2.624996969)
    zone:58 nCells:0  voxels:(39 39 39) bb:(-4.083003031 -4.375003031 -4.375003031) (-2.332996969 -2.624996969 -2.624996969)
    zone:59 nCells:0  voxels:(39 39 39) bb:(-4.083003031 -4.375003031 -4.375003031) (-2.332996969 -2.624996969 -2.624996969)
    zone:60 nCells:0  voxels:(39 39 39) bb:(-4.083003031 -4.375003031 -4.375003031) (-2.332996969 -2.624996969 -2.624996969)
    zone:61 nCells:0  voxels:(39 39 39) bb:(-4.083003031 -4.375003031 -4.375003031) (-2.332996969 -2.624996969 -2.624996969)
    zone:62 nCells:0  voxels:(39 39 39) bb:(-4.083003031 -4.375003031 -4.375003031) (-2.332996969 -2.624996969 -2.624996969)
    zone:63 nCells:0  voxels:(39 39 39) bb:(-4.083003031 -4.375003031 -4.375003031) (-2.332996969 -2.624996969 -2.624996969)
    zone:64 nCells:0  voxels:(39 39 39) bb:(-4.083003031 -4.375003031 -4.375003031) (-2.332996969 -2.624996969 -2.624996969)
    zone:65 nCells:0  voxels:(39 39 39) bb:(-4.083003031 -4.375003031 -4.375003031) (-2.332996969 -2.624996969 -2.624996969)
    zone:66 nCells:0  voxels:(39 39 39) bb:(-4.083003031 -4.375003031 -4.375003031) (-2.332996969 -2.624996969 -2.624996969)
    zone:67 nCells:0  voxels:(39 39 39) bb:(-4.083003031 -4.375003031 -4.375003031) (-2.332996969 -2.624996969 -2.624996969)
    zone:68 nCells:0  voxels:(39 39 39) bb:(-4.083003031 -4.375003031 -4.375003031) (-2.332996969 -2.624996969 -2.624996969)
    zone:69 nCells:0  voxels:(39 39 39) bb:(-4.083003031 -4.375003031 -4.375003031) (-2.332996969 -2.624996969 -2.624996969)
    zone:70 nCells:0  voxels:(39 39 39) bb:(-4.083003031 -4.375003031 -4.375003031) (-2.332996969 -2.624996969 -2.624996969)
    zone:71 nCells:0  voxels:(39 39 39) bb:(-4.083003031 -4.375003031 -4.375003031) (-2.332996969 -2.624996969 -2.624996969)
    zone:72 nCells:0  voxels:(39 39 39) bb:(-4.083003031 -4.375003031 -4.375003031) (-2.332996969 -2.624996969 -2.624996969)
    zone:73 nCells:0  voxels:(39 39 39) bb:(-4.083003031 -4.375003031 -4.375003031) (-2.332996969 -2.624996969 -2.624996969)
    zone:74 nCells:0  voxels:(39 39 39) bb:(-4.083003031 -4.375003031 -4.375003031) (-2.332996969 -2.624996969 -2.624996969)
    zone:75 nCells:0  voxels:(39 39 39) bb:(-4.083003031 -4.375003031 -4.375003031) (-2.332996969 -2.624996969 -2.624996969)
    zone:76 nCells:0  voxels:(39 39 39) bb:(-4.083003031 -4.375003031 -4.375003031) (-2.332996969 -2.624996969 -2.624996969)
    zone:77 nCells:0  voxels:(39 39 39) bb:(-4.083003031 -4.375003031 -4.375003031) (-2.332996969 -2.624996969 -2.624996969)
    zone:78 nCells:0  voxels:(39 39 39) bb:(-4.083003031 -4.375003031 -4.375003031) (-2.332996969 -2.624996969 -2.624996969)
    zone:79 nCells:0  voxels:(39 39 39) bb:(-4.083003031 -4.375003031 -4.375003031) (-2.332996969 -2.624996969 -2.624996969)
    zone:80 nCells:0  voxels:(39 39 39) bb:(-4.083003031 -4.375003031 -4.375003031) (-2.332996969 -2.624996969 -2.624996969)
    zone:81 nCells:0  voxels:(39 39 39) bb:(-4.083003031 -4.375003031 -4.375003031) (-2.332996969 -2.624996969 -2.624996969)
    zone:82 nCells:0  voxels:(39 39 39) bb:(-4.083003031 -4.375003031 -4.375003031) (-2.332996969 -2.624996969 -2.624996969)
    zone:83 nCells:0  voxels:(39 39 39) bb:(-4.083003031 -4.375003031 -4.375003031) (-2.332996969 -2.624996969 -2.624996969)
    zone:84 nCells:0  voxels:(39 39 39) bb:(-4.083003031 -4.375003031 -4.375003031) (-2.332996969 -2.624996969 -2.624996969)
    zone:85 nCells:0  voxels:(39 39 39) bb:(-4.083003031 -4.375003031 -4.375003031) (-2.332996969 -2.624996969 -2.624996969)
    zone:86 nCells:0  voxels:(39 39 39) bb:(-4.083003031 -4.375003031 -4.375003031) (-2.332996969 -2.624996969 -2.624996969)
    zone:87 nCells:0  voxels:(39 39 39) bb:(-4.083003031 -4.375003031 -4.375003031) (-2.332996969 -2.624996969 -2.624996969)
    zone:88 nCells:0  voxels:(39 39 39) bb:(-4.083003031 -4.375003031 -4.375003031) (-2.332996969 -2.624996969 -2.624996969)
    zone:89 nCells:0  voxels:(39 39 39) bb:(-4.083003031 -4.375003031 -4.375003031) (-2.332996969 -2.624996969 -2.624996969)
    zone:90 nCells:0  voxels:(39 39 39) bb:(-4.083003031 -4.375003031 -4.375003031) (-2.332996969 -2.624996969 -2.624996969)
    zone:91 nCells:0  voxels:(39 39 39) bb:(-4.083003031 -4.375003031 -4.375003031) (-2.332996969 -2.624996969 -2.624996969)
    zone:92 nCells:0  voxels:(39 39 39) bb:(-4.083003031 -4.375003031 -4.375003031) (-2.332996969 -2.624996969 -2.624996969)
    zone:93 nCells:0  voxels:(39 39 39) bb:(-4.083003031 -4.375003031 -4.375003031) (-2.332996969 -2.624996969 -2.624996969)
    zone:94 nCells:0  voxels:(39 39 39) bb:(-4.083003031 -4.375003031 -4.375003031) (-2.332996969 -2.624996969 -2.624996969)
    zone:95 nCells:0  voxels:(39 39 39) bb:(-4.083003031 -4.375003031 -4.375003031) (-2.332996969 -2.624996969 -2.624996969)
    zone:96 nCells:0  voxels:(39 39 39) bb:(-4.083003031 -4.375003031 -4.375003031) (-2.332996969 -2.624996969 -2.624996969)
    zone:97 nCells:0  voxels:(39 39 39) bb:(-4.083003031 -4.375003031 -4.375003031) (-2.332996969 -2.624996969 -2.624996969)
    zone:98 nCells:0  voxels:(39 39 39) bb:(-4.083003031 -4.375003031 -4.375003031) (-2.332996969 -2.624996969 -2.624996969)
    zone:99 nCells:0  voxels:(39 39 39) bb:(-4.083003031 -4.375003031 -4.375003031) (-2.332996969 -2.624996969 -2.624996969)
    zone:100 nCells:0  voxels:(39 39 39) bb:(-4.083003031 -4.375003031 -4.375003031) (-2.332996969 -2.624996969 -2.624996969)
    zone:101 nCells:0  voxels:(39 39 39) bb:(-4.083003031 -4.375003031 -4.375003031) (-2.332996969 -2.624996969 -2.624996969)
    zone:102 nCells:0  voxels:(39 39 39) bb:(-4.083003031 -4.375003031 -4.375003031) (-2.332996969 -2.624996969 -2.624996969)
    zone:103 nCells:0  voxels:(39 39 39) bb:(-4.083003031 -4.375003031 -4.375003031) (-2.332996969 -2.624996969 -2.624996969)
    zone:104 nCells:0  voxels:(39 39 39) bb:(-4.083003031 -4.375003031 -4.375003031) (-2.332996969 -2.624996969 -2.624996969)
    zone:105 nCells:0  voxels:(39 39 39) bb:(-4.083003031 -4.375003031 -4.375003031) (-2.332996969 -2.624996969 -2.624996969)
    zone:106 nCells:0  voxels:(39 39 39) bb:(-4.083003031 -4.375003031 -4.375003031) (-2.332996969 -2.624996969 -2.624996969)
    zone:107 nCells:0  voxels:(39 39 39) bb:(-4.083003031 -4.375003031 -4.375003031) (-2.332996969 -2.624996969 -2.624996969)
    zone:108 nCells:0  voxels:(39 39 39) bb:(-4.083003031 -4.375003031 -4.375003031) (-2.332996969 -2.624996969 -2.624996969)
    zone:109 nCells:0  voxels:(39 39 39) bb:(-4.083003031 -4.375003031 -4.375003031) (-2.332996969 -2.624996969 -2.624996969)
    zone:110 nCells:0  voxels:(39 39 39) bb:(-4.083003031 -4.375003031 -4.375003031) (-2.332996969 -2.624996969 -2.624996969)
    zone:111 nCells:0  voxels:(39 39 39) bb:(-4.083003031 -4.375003031 -4.375003031) (-2.332996969 -2.624996969 -2.624996969)
    zone:112 nCells:0  voxels:(39 39 39) bb:(-4.083003031 -4.375003031 -4.375003031) (-2.332996969 -2.624996969 -2.624996969)
    zone:113 nCells:0  voxels:(39 39 39) bb:(-4.083003031 -4.375003031 -4.375003031) (-2.332996969 -2.624996969 -2.624996969)
    zone:114 nCells:0  voxels:(39 39 39) bb:(-4.083003031 -4.375003031 -4.375003031) (-2.332996969 -2.624996969 -2.624996969)
    zone:115 nCells:0  voxels:(39 39 39) bb:(-4.083003031 -4.375003031 -4.375003031) (-2.332996969 -2.624996969 -2.624996969)
    zone:116 nCells:0  voxels:(39 39 39) bb:(-4.083003031 -4.375003031 -4.375003031) (-2.332996969 -2.624996969 -2.624996969)
    zone:117 nCells:0  voxels:(39 39 39) bb:(-4.083003031 -4.375003031 -4.375003031) (-2.332996969 -2.624996969 -2.624996969)
    zone:118 nCells:0  voxels:(39 39 39) bb:(-4.083003031 -4.375003031 -4.375003031) (-2.332996969 -2.624996969 -2.624996969)
    zone:119 nCells:0  voxels:(39 39 39) bb:(-4.083003031 -4.375003031 -4.375003031) (-2.332996969 -2.624996969 -2.624996969)
    zone:120 nCells:0  voxels:(39 39 39) bb:(-4.083003031 -4.375003031 -4.375003031) (-2.332996969 -2.624996969 -2.624996969)
    zone:121 nCells:0  voxels:(39 39 39) bb:(-4.083003031 -4.375003031 -4.375003031) (-2.332996969 -2.624996969 -2.624996969)
    zone:122 nCells:0  voxels:(39 39 39) bb:(-4.083003031 -4.375003031 -4.375003031) (-2.332996969 -2.624996969 -2.624996969)
    zone:123 nCells:10240  voxels:(39 39 39) bb:(-0.08244466726 -0.03608835389 -0.1970182622) (0.08244466726 0.1251727496 0.01795411051)
Overset analysis : nCells : 63355
    calculated   : 56555
    interpolated : 6800 (from local:6800  mixed local/remote:0  remote:0)
    hole         : 0

Mesh Courant Number mean: 0.003461933219 max: 24.02811364
PIMPLE: iteration 1
DILUPBiCGStab:  Solving for Ux, Initial residual = 0.9979817076, Final residual = 7.376725232e-09, No Iterations 8
DILUPBiCGStab:  Solving for Uy, Initial residual = 0.999150236, Final residual = 2.642543436e-09, No Iterations 9
DILUPBiCGStab:  Solving for Uz, Initial residual = 0.9991980347, Final residual = 5.692424414e-09, No Iterations 10
DILUPBiCGStab:  Solving for p, Initial residual = 1, Final residual = 0.005855193311, No Iterations 3
DILUPBiCGStab:  Solving for p, Initial residual = 0.0006857440632, Final residual = 3.956195544e-06, No Iterations 3
DILUPBiCGStab:  Solving for p, Initial residual = 3.907369764e-06, Final residual = 1.212097734e-07, No Iterations 2
time step continuity errors : sum local = 1.061518567e-12, global = 9.241191325e-13, cumulative = 9.241191325e-13
DILUPBiCGStab:  Solving for p, Initial residual = 0.03881130134, Final residual = 0.0001878086306, No Iterations 3
DILUPBiCGStab:  Solving for p, Initial residual = 0.0002366171281, Final residual = 1.646339779e-06, No Iterations 3
DILUPBiCGStab:  Solving for p, Initial residual = 1.653745798e-06, Final residual = 4.976021241e-08, No Iterations 2
time step continuity errors : sum local = 3.521086103e-13, global = -3.185972661e-13, cumulative = 6.055218664e-13
DILUPBiCGStab:  Solving for p, Initial residual = 0.01834381429, Final residual = 8.291665843e-05, No Iterations 3
DILUPBiCGStab:  Solving for p, Initial residual = 9.111016563e-05, Final residual = 7.737668301e-07, No Iterations 3
DILUPBiCGStab:  Solving for p, Initial residual = 7.751471517e-07, Final residual = 1.164193988e-08, No Iterations 2
time step continuity errors : sum local = 7.542210356e-14, global = -7.056478487e-14, cumulative = 5.349570816e-13
DILUPBiCGStab:  Solving for omega, Initial residual = 1, Final residual = 3.903978442e-09, No Iterations 8
DILUPBiCGStab:  Solving for k, Initial residual = 1, Final residual = 4.431320322e-09, No Iterations 8
ExecutionTime = 3.6 s  ClockTime = 4 s

surfaceFieldValue inMassFlow write:
    total faces   = 1225
    total area    = 3.0625

    sum(inlet) of phi = -3.0625

surfaceFieldValue outMassFlow write:
    total faces   = 1225
    total area    = 3.0625

    sum(outlet) of phi = 3.0625

forces forces_object write:
    Sum of forces
        Total    : (0 0 0)
        Pressure : (0 0 0)
        Viscous  : (0 0 0)
    Sum of moments
        Total    : (0 0 0)
        Pressure : (0 0 0)
        Viscous  : (0 0 0)
    writing force and moment files.

forceCoeffs forceCoeffs_object write:
    Coefficient	Total	Pressure	Viscous	Internal
    Cd:	0	0	0	0
    Cd(f):	0	0	0	0
    Cd(r):	0	0	0	0
    Cl:	0	0	0	0
    Cl(f):	0	0	0	0
    Cl(r):	0	0	0	0
    CmPitch:	0	0	0	0
    CmRoll:	0	0	0	0
    CmYaw:	0	0	0	0
    Cs:	0	0	0	0
    Cs(f):	0	0	0	0
    Cs(r):	0	0	0	0

    writing force and moment coefficient files.

--> FOAM Warning : 
    From virtual bool Foam::functionObjects::fieldSelection::checkSelection()
    in file functionObjects/fieldSelections/fieldSelection/fieldSelection.C at line 166
    Field epsilon not found
fieldMinMax minmaxdomain write:
    min(nut) = 0.000665384203 in cell 36329 at location (-0.508 0.85 0.85)
    max(nut) = 0.0006842988928 in cell 59227 at location (-0.06096279798 0.02033056667 -0.009431612841)
    min(U) = (0.9876667484 -0.05557695564 -0.005699458781) in cell 59487 at location (-0.06667253932 0.03564025985 -0.001815042174)
    max(U) = (1.018428748 0.01566642556 0.06780213157) in cell 58479 at location (-0.07061179874 0.02490894372 -0.01273846148)
    min(k) = 0.009402443343 in cell 42860 at location (1.092 0.8 0.8)
    max(k) = 0.01 in cell 0 at location (-0.583 -0.85 -0.85)
    min(p) = -0.2567631828 in cell 58989 at location (-0.06929871227 0.02700130917 -0.006112919185)
    max(p) = 0.02323294881 in cell 62930 at location (0.02499296789 0.008849002092 -0.003974508515)
    min(omega) = 14.12296394 in cell 42866 at location (1.142 0.8 0.8)
    max(omega) = 15 in cell 0 at location (-0.583 -0.85 -0.85)

yPlus yplus write:
    writing field yPlus
Courant Number mean: 2.319027627 max: 2000
Time = 0.1

inverseDistance : detected 124 mesh regions
    zone:0 nCells:42875  voxels:(39 39 39) bb:(-0.5830030311 -0.8750030311 -0.8750030311) (1.167003031 0.8750030311 0.8750030311)
    zone:1 nCells:10240  voxels:(39 39 39) bb:(-0.08086079812 -0.01745007374 -0.01615757573) (0.08086079812 0.1533320339 0.1629093829)
    zone:2 nCells:0  voxels:(39 39 39) bb:(-4.083003031 -4.375003031 -4.375003031) (-2.332996969 -2.624996969 -2.624996969)
    zone:3 nCells:0  voxels:(39 39 39) bb:(-4.083003031 -4.375003031 -4.375003031) (-2.332996969 -2.624996969 -2.624996969)
    zone:4 nCells:0  voxels:(39 39 39) bb:(-4.083003031 -4.375003031 -4.375003031) (-2.332996969 -2.624996969 -2.624996969)
    zone:5 nCells:0  voxels:(39 39 39) bb:(-4.083003031 -4.375003031 -4.375003031) (-2.332996969 -2.624996969 -2.624996969)
    zone:6 nCells:0  voxels:(39 39 39) bb:(-4.083003031 -4.375003031 -4.375003031) (-2.332996969 -2.624996969 -2.624996969)
    zone:7 nCells:0  voxels:(39 39 39) bb:(-4.083003031 -4.375003031 -4.375003031) (-2.332996969 -2.624996969 -2.624996969)
    zone:8 nCells:0  voxels:(39 39 39) bb:(-4.083003031 -4.375003031 -4.375003031) (-2.332996969 -2.624996969 -2.624996969)
    zone:9 nCells:0  voxels:(39 39 39) bb:(-4.083003031 -4.375003031 -4.375003031) (-2.332996969 -2.624996969 -2.624996969)
    zone:10 nCells:0  voxels:(39 39 39) bb:(-4.083003031 -4.375003031 -4.375003031) (-2.332996969 -2.624996969 -2.624996969)
    zone:11 nCells:0  voxels:(39 39 39) bb:(-4.083003031 -4.375003031 -4.375003031) (-2.332996969 -2.624996969 -2.624996969)
    zone:12 nCells:0  voxels:(39 39 39) bb:(-4.083003031 -4.375003031 -4.375003031) (-2.332996969 -2.624996969 -2.624996969)
    zone:13 nCells:0  voxels:(39 39 39) bb:(-4.083003031 -4.375003031 -4.375003031) (-2.332996969 -2.624996969 -2.624996969)
    zone:14 nCells:0  voxels:(39 39 39) bb:(-4.083003031 -4.375003031 -4.375003031) (-2.332996969 -2.624996969 -2.624996969)
    zone:15 nCells:0  voxels:(39 39 39) bb:(-4.083003031 -4.375003031 -4.375003031) (-2.332996969 -2.624996969 -2.624996969)
    zone:16 nCells:0  voxels:(39 39 39) bb:(-4.083003031 -4.375003031 -4.375003031) (-2.332996969 -2.624996969 -2.624996969)
    zone:17 nCells:0  voxels:(39 39 39) bb:(-4.083003031 -4.375003031 -4.375003031) (-2.332996969 -2.624996969 -2.624996969)
    zone:18 nCells:0  voxels:(39 39 39) bb:(-4.083003031 -4.375003031 -4.375003031) (-2.332996969 -2.624996969 -2.624996969)
    zone:19 nCells:0  voxels:(39 39 39) bb:(-4.083003031 -4.375003031 -4.375003031) (-2.332996969 -2.624996969 -2.624996969)
    zone:20 nCells:0  voxels:(39 39 39) bb:(-4.083003031 -4.375003031 -4.375003031) (-2.332996969 -2.624996969 -2.624996969)
    zone:21 nCells:0  voxels:(39 39 39) bb:(-4.083003031 -4.375003031 -4.375003031) (-2.332996969 -2.624996969 -2.624996969)
    zone:22 nCells:0  voxels:(39 39 39) bb:(-4.083003031 -4.375003031 -4.375003031) (-2.332996969 -2.624996969 -2.624996969)
    zone:23 nCells:0  voxels:(39 39 39) bb:(-4.083003031 -4.375003031 -4.375003031) (-2.332996969 -2.624996969 -2.624996969)
    zone:24 nCells:0  voxels:(39 39 39) bb:(-4.083003031 -4.375003031 -4.375003031) (-2.332996969 -2.624996969 -2.624996969)
    zone:25 nCells:0  voxels:(39 39 39) bb:(-4.083003031 -4.375003031 -4.375003031) (-2.332996969 -2.624996969 -2.624996969)
    zone:26 nCells:0  voxels:(39 39 39) bb:(-4.083003031 -4.375003031 -4.375003031) (-2.332996969 -2.624996969 -2.624996969)
    zone:27 nCells:0  voxels:(39 39 39) bb:(-4.083003031 -4.375003031 -4.375003031) (-2.332996969 -2.624996969 -2.624996969)
    zone:28 nCells:0  voxels:(39 39 39) bb:(-4.083003031 -4.375003031 -4.375003031) (-2.332996969 -2.624996969 -2.624996969)
    zone:29 nCells:0  voxels:(39 39 39) bb:(-4.083003031 -4.375003031 -4.375003031) (-2.332996969 -2.624996969 -2.624996969)
    zone:30 nCells:0  voxels:(39 39 39) bb:(-4.083003031 -4.375003031 -4.375003031) (-2.332996969 -2.624996969 -2.624996969)
    zone:31 nCells:0  voxels:(39 39 39) bb:(-4.083003031 -4.375003031 -4.375003031) (-2.332996969 -2.624996969 -2.624996969)
    zone:32 nCells:0  voxels:(39 39 39) bb:(-4.083003031 -4.375003031 -4.375003031) (-2.332996969 -2.624996969 -2.624996969)
    zone:33 nCells:0  voxels:(39 39 39) bb:(-4.083003031 -4.375003031 -4.375003031) (-2.332996969 -2.624996969 -2.624996969)
    zone:34 nCells:0  voxels:(39 39 39) bb:(-4.083003031 -4.375003031 -4.375003031) (-2.332996969 -2.624996969 -2.624996969)
    zone:35 nCells:0  voxels:(39 39 39) bb:(-4.083003031 -4.375003031 -4.375003031) (-2.332996969 -2.624996969 -2.624996969)
    zone:36 nCells:0  voxels:(39 39 39) bb:(-4.083003031 -4.375003031 -4.375003031) (-2.332996969 -2.624996969 -2.624996969)
    zone:37 nCells:0  voxels:(39 39 39) bb:(-4.083003031 -4.375003031 -4.375003031) (-2.332996969 -2.624996969 -2.624996969)
    zone:38 nCells:0  voxels:(39 39 39) bb:(-4.083003031 -4.375003031 -4.375003031) (-2.332996969 -2.624996969 -2.624996969)
    zone:39 nCells:0  voxels:(39 39 39) bb:(-4.083003031 -4.375003031 -4.375003031) (-2.332996969 -2.624996969 -2.624996969)
    zone:40 nCells:0  voxels:(39 39 39) bb:(-4.083003031 -4.375003031 -4.375003031) (-2.332996969 -2.624996969 -2.624996969)
    zone:41 nCells:0  voxels:(39 39 39) bb:(-4.083003031 -4.375003031 -4.375003031) (-2.332996969 -2.624996969 -2.624996969)
    zone:42 nCells:0  voxels:(39 39 39) bb:(-4.083003031 -4.375003031 -4.375003031) (-2.332996969 -2.624996969 -2.624996969)
    zone:43 nCells:0  voxels:(39 39 39) bb:(-4.083003031 -4.375003031 -4.375003031) (-2.332996969 -2.624996969 -2.624996969)
    zone:44 nCells:0  voxels:(39 39 39) bb:(-4.083003031 -4.375003031 -4.375003031) (-2.332996969 -2.624996969 -2.624996969)
    zone:45 nCells:0  voxels:(39 39 39) bb:(-4.083003031 -4.375003031 -4.375003031) (-2.332996969 -2.624996969 -2.624996969)
    zone:46 nCells:0  voxels:(39 39 39) bb:(-4.083003031 -4.375003031 -4.375003031) (-2.332996969 -2.624996969 -2.624996969)
    zone:47 nCells:0  voxels:(39 39 39) bb:(-4.083003031 -4.375003031 -4.375003031) (-2.332996969 -2.624996969 -2.624996969)
    zone:48 nCells:0  voxels:(39 39 39) bb:(-4.083003031 -4.375003031 -4.375003031) (-2.332996969 -2.624996969 -2.624996969)
    zone:49 nCells:0  voxels:(39 39 39) bb:(-4.083003031 -4.375003031 -4.375003031) (-2.332996969 -2.624996969 -2.624996969)
    zone:50 nCells:0  voxels:(39 39 39) bb:(-4.083003031 -4.375003031 -4.375003031) (-2.332996969 -2.624996969 -2.624996969)
    zone:51 nCells:0  voxels:(39 39 39) bb:(-4.083003031 -4.375003031 -4.375003031) (-2.332996969 -2.624996969 -2.624996969)
    zone:52 nCells:0  voxels:(39 39 39) bb:(-4.083003031 -4.375003031 -4.375003031) (-2.332996969 -2.624996969 -2.624996969)
    zone:53 nCells:0  voxels:(39 39 39) bb:(-4.083003031 -4.375003031 -4.375003031) (-2.332996969 -2.624996969 -2.624996969)
    zone:54 nCells:0  voxels:(39 39 39) bb:(-4.083003031 -4.375003031 -4.375003031) (-2.332996969 -2.624996969 -2.624996969)
    zone:55 nCells:0  voxels:(39 39 39) bb:(-4.083003031 -4.375003031 -4.375003031) (-2.332996969 -2.624996969 -2.624996969)
    zone:56 nCells:0  voxels:(39 39 39) bb:(-4.083003031 -4.375003031 -4.375003031) (-2.332996969 -2.624996969 -2.624996969)
    zone:57 nCells:0  voxels:(39 39 39) bb:(-4.083003031 -4.375003031 -4.375003031) (-2.332996969 -2.624996969 -2.624996969)
    zone:58 nCells:0  voxels:(39 39 39) bb:(-4.083003031 -4.375003031 -4.375003031) (-2.332996969 -2.624996969 -2.624996969)
    zone:59 nCells:0  voxels:(39 39 39) bb:(-4.083003031 -4.375003031 -4.375003031) (-2.332996969 -2.624996969 -2.624996969)
    zone:60 nCells:0  voxels:(39 39 39) bb:(-4.083003031 -4.375003031 -4.375003031) (-2.332996969 -2.624996969 -2.624996969)
    zone:61 nCells:0  voxels:(39 39 39) bb:(-4.083003031 -4.375003031 -4.375003031) (-2.332996969 -2.624996969 -2.624996969)
    zone:62 nCells:0  voxels:(39 39 39) bb:(-4.083003031 -4.375003031 -4.375003031) (-2.332996969 -2.624996969 -2.624996969)
    zone:63 nCells:0  voxels:(39 39 39) bb:(-4.083003031 -4.375003031 -4.375003031) (-2.332996969 -2.624996969 -2.624996969)
    zone:64 nCells:0  voxels:(39 39 39) bb:(-4.083003031 -4.375003031 -4.375003031) (-2.332996969 -2.624996969 -2.624996969)
    zone:65 nCells:0  voxels:(39 39 39) bb:(-4.083003031 -4.375003031 -4.375003031) (-2.332996969 -2.624996969 -2.624996969)
    zone:66 nCells:0  voxels:(39 39 39) bb:(-4.083003031 -4.375003031 -4.375003031) (-2.332996969 -2.624996969 -2.624996969)
    zone:67 nCells:0  voxels:(39 39 39) bb:(-4.083003031 -4.375003031 -4.375003031) (-2.332996969 -2.624996969 -2.624996969)
    zone:68 nCells:0  voxels:(39 39 39) bb:(-4.083003031 -4.375003031 -4.375003031) (-2.332996969 -2.624996969 -2.624996969)
    zone:69 nCells:0  voxels:(39 39 39) bb:(-4.083003031 -4.375003031 -4.375003031) (-2.332996969 -2.624996969 -2.624996969)
    zone:70 nCells:0  voxels:(39 39 39) bb:(-4.083003031 -4.375003031 -4.375003031) (-2.332996969 -2.624996969 -2.624996969)
    zone:71 nCells:0  voxels:(39 39 39) bb:(-4.083003031 -4.375003031 -4.375003031) (-2.332996969 -2.624996969 -2.624996969)
    zone:72 nCells:0  voxels:(39 39 39) bb:(-4.083003031 -4.375003031 -4.375003031) (-2.332996969 -2.624996969 -2.624996969)
    zone:73 nCells:0  voxels:(39 39 39) bb:(-4.083003031 -4.375003031 -4.375003031) (-2.332996969 -2.624996969 -2.624996969)
    zone:74 nCells:0  voxels:(39 39 39) bb:(-4.083003031 -4.375003031 -4.375003031) (-2.332996969 -2.624996969 -2.624996969)
    zone:75 nCells:0  voxels:(39 39 39) bb:(-4.083003031 -4.375003031 -4.375003031) (-2.332996969 -2.624996969 -2.624996969)
    zone:76 nCells:0  voxels:(39 39 39) bb:(-4.083003031 -4.375003031 -4.375003031) (-2.332996969 -2.624996969 -2.624996969)
    zone:77 nCells:0  voxels:(39 39 39) bb:(-4.083003031 -4.375003031 -4.375003031) (-2.332996969 -2.624996969 -2.624996969)
    zone:78 nCells:0  voxels:(39 39 39) bb:(-4.083003031 -4.375003031 -4.375003031) (-2.332996969 -2.624996969 -2.624996969)
    zone:79 nCells:0  voxels:(39 39 39) bb:(-4.083003031 -4.375003031 -4.375003031) (-2.332996969 -2.624996969 -2.624996969)
    zone:80 nCells:0  voxels:(39 39 39) bb:(-4.083003031 -4.375003031 -4.375003031) (-2.332996969 -2.624996969 -2.624996969)
    zone:81 nCells:0  voxels:(39 39 39) bb:(-4.083003031 -4.375003031 -4.375003031) (-2.332996969 -2.624996969 -2.624996969)
    zone:82 nCells:0  voxels:(39 39 39) bb:(-4.083003031 -4.375003031 -4.375003031) (-2.332996969 -2.624996969 -2.624996969)
    zone:83 nCells:0  voxels:(39 39 39) bb:(-4.083003031 -4.375003031 -4.375003031) (-2.332996969 -2.624996969 -2.624996969)
    zone:84 nCells:0  voxels:(39 39 39) bb:(-4.083003031 -4.375003031 -4.375003031) (-2.332996969 -2.624996969 -2.624996969)
    zone:85 nCells:0  voxels:(39 39 39) bb:(-4.083003031 -4.375003031 -4.375003031) (-2.332996969 -2.624996969 -2.624996969)
    zone:86 nCells:0  voxels:(39 39 39) bb:(-4.083003031 -4.375003031 -4.375003031) (-2.332996969 -2.624996969 -2.624996969)
    zone:87 nCells:0  voxels:(39 39 39) bb:(-4.083003031 -4.375003031 -4.375003031) (-2.332996969 -2.624996969 -2.624996969)
    zone:88 nCells:0  voxels:(39 39 39) bb:(-4.083003031 -4.375003031 -4.375003031) (-2.332996969 -2.624996969 -2.624996969)
    zone:89 nCells:0  voxels:(39 39 39) bb:(-4.083003031 -4.375003031 -4.375003031) (-2.332996969 -2.624996969 -2.624996969)
    zone:90 nCells:0  voxels:(39 39 39) bb:(-4.083003031 -4.375003031 -4.375003031) (-2.332996969 -2.624996969 -2.624996969)
    zone:91 nCells:0  voxels:(39 39 39) bb:(-4.083003031 -4.375003031 -4.375003031) (-2.332996969 -2.624996969 -2.624996969)
    zone:92 nCells:0  voxels:(39 39 39) bb:(-4.083003031 -4.375003031 -4.375003031) (-2.332996969 -2.624996969 -2.624996969)
    zone:93 nCells:0  voxels:(39 39 39) bb:(-4.083003031 -4.375003031 -4.375003031) (-2.332996969 -2.624996969 -2.624996969)
    zone:94 nCells:0  voxels:(39 39 39) bb:(-4.083003031 -4.375003031 -4.375003031) (-2.332996969 -2.624996969 -2.624996969)
    zone:95 nCells:0  voxels:(39 39 39) bb:(-4.083003031 -4.375003031 -4.375003031) (-2.332996969 -2.624996969 -2.624996969)
    zone:96 nCells:0  voxels:(39 39 39) bb:(-4.083003031 -4.375003031 -4.375003031) (-2.332996969 -2.624996969 -2.624996969)
    zone:97 nCells:0  voxels:(39 39 39) bb:(-4.083003031 -4.375003031 -4.375003031) (-2.332996969 -2.624996969 -2.624996969)
    zone:98 nCells:0  voxels:(39 39 39) bb:(-4.083003031 -4.375003031 -4.375003031) (-2.332996969 -2.624996969 -2.624996969)
    zone:99 nCells:0  voxels:(39 39 39) bb:(-4.083003031 -4.375003031 -4.375003031) (-2.332996969 -2.624996969 -2.624996969)
    zone:100 nCells:0  voxels:(39 39 39) bb:(-4.083003031 -4.375003031 -4.375003031) (-2.332996969 -2.624996969 -2.624996969)
    zone:101 nCells:0  voxels:(39 39 39) bb:(-4.083003031 -4.375003031 -4.375003031) (-2.332996969 -2.624996969 -2.624996969)
    zone:102 nCells:0  voxels:(39 39 39) bb:(-4.083003031 -4.375003031 -4.375003031) (-2.332996969 -2.624996969 -2.624996969)
    zone:103 nCells:0  voxels:(39 39 39) bb:(-4.083003031 -4.375003031 -4.375003031) (-2.332996969 -2.624996969 -2.624996969)
    zone:104 nCells:0  voxels:(39 39 39) bb:(-4.083003031 -4.375003031 -4.375003031) (-2.332996969 -2.624996969 -2.624996969)
    zone:105 nCells:0  voxels:(39 39 39) bb:(-4.083003031 -4.375003031 -4.375003031) (-2.332996969 -2.624996969 -2.624996969)
    zone:106 nCells:0  voxels:(39 39 39) bb:(-4.083003031 -4.375003031 -4.375003031) (-2.332996969 -2.624996969 -2.624996969)
    zone:107 nCells:0  voxels:(39 39 39) bb:(-4.083003031 -4.375003031 -4.375003031) (-2.332996969 -2.624996969 -2.624996969)
    zone:108 nCells:0  voxels:(39 39 39) bb:(-4.083003031 -4.375003031 -4.375003031) (-2.332996969 -2.624996969 -2.624996969)
    zone:109 nCells:0  voxels:(39 39 39) bb:(-4.083003031 -4.375003031 -4.375003031) (-2.332996969 -2.624996969 -2.624996969)
    zone:110 nCells:0  voxels:(39 39 39) bb:(-4.083003031 -4.375003031 -4.375003031) (-2.332996969 -2.624996969 -2.624996969)
    zone:111 nCells:0  voxels:(39 39 39) bb:(-4.083003031 -4.375003031 -4.375003031) (-2.332996969 -2.624996969 -2.624996969)
    zone:112 nCells:0  voxels:(39 39 39) bb:(-4.083003031 -4.375003031 -4.375003031) (-2.332996969 -2.624996969 -2.624996969)
    zone:113 nCells:0  voxels:(39 39 39) bb:(-4.083003031 -4.375003031 -4.375003031) (-2.332996969 -2.624996969 -2.624996969)
    zone:114 nCells:0  voxels:(39 39 39) bb:(-4.083003031 -4.375003031 -4.375003031) (-2.332996969 -2.624996969 -2.624996969)
    zone:115 nCells:0  voxels:(39 39 39) bb:(-4.083003031 -4.375003031 -4.375003031) (-2.332996969 -2.624996969 -2.624996969)
    zone:116 nCells:0  voxels:(39 39 39) bb:(-4.083003031 -4.375003031 -4.375003031) (-2.332996969 -2.624996969 -2.624996969)
    zone:117 nCells:0  voxels:(39 39 39) bb:(-4.083003031 -4.375003031 -4.375003031) (-2.332996969 -2.624996969 -2.624996969)
    zone:118 nCells:0  voxels:(39 39 39) bb:(-4.083003031 -4.375003031 -4.375003031) (-2.332996969 -2.624996969 -2.624996969)
    zone:119 nCells:0  voxels:(39 39 39) bb:(-4.083003031 -4.375003031 -4.375003031) (-2.332996969 -2.624996969 -2.624996969)
    zone:120 nCells:0  voxels:(39 39 39) bb:(-4.083003031 -4.375003031 -4.375003031) (-2.332996969 -2.624996969 -2.624996969)
    zone:121 nCells:0  voxels:(39 39 39) bb:(-4.083003031 -4.375003031 -4.375003031) (-2.332996969 -2.624996969 -2.624996969)
    zone:122 nCells:0  voxels:(39 39 39) bb:(-4.083003031 -4.375003031 -4.375003031) (-2.332996969 -2.624996969 -2.624996969)
    zone:123 nCells:10240  voxels:(39 39 39) bb:(-0.08086079812 -0.01745007374 -0.1629093829) (0.08086079812 0.1533320339 0.01615757573)
Overset analysis : nCells : 63355
    calculated   : 56555
    interpolated : 6800 (from local:6800  mixed local/remote:0  remote:0)
    hole         : 0

Mesh Courant Number mean: 0.002263037778 max: 16.18889351
PIMPLE: iteration 1
DILUPBiCGStab:  Solving for Ux, Initial residual = 0.00874181321, Final residual = 3.903392605e-09, No Iterations 8
DILUPBiCGStab:  Solving for Uy, Initial residual = 0.0500128412, Final residual = 4.612462607e-09, No Iterations 9
DILUPBiCGStab:  Solving for Uz, Initial residual = 0.02052478456, Final residual = 5.53710546e-09, No Iterations 9
DILUPBiCGStab:  Solving for p, Initial residual = 0.2023460897, Final residual = 0.001879916194, No Iterations 2
DILUPBiCGStab:  Solving for p, Initial residual = 0.002491429725, Final residual = 1.984286362e-05, No Iterations 3
DILUPBiCGStab:  Solving for p, Initial residual = 1.980678126e-05, Final residual = 3.320031946e-07, No Iterations 2
time step continuity errors : sum local = 1.766001782e-12, global = 1.557564789e-12, cumulative = 2.092521871e-12
DILUPBiCGStab:  Solving for p, Initial residual = 0.04985277138, Final residual = 0.0003871254362, No Iterations 3
DILUPBiCGStab:  Solving for p, Initial residual = 0.0003698549738, Final residual = 1.705386385e-06, No Iterations 3
DILUPBiCGStab:  Solving for p, Initial residual = 1.706157569e-06, Final residual = 3.85945371e-08, No Iterations 2
time step continuity errors : sum local = 2.107618763e-13, global = -1.619900748e-13, cumulative = 1.930531796e-12
DILUPBiCGStab:  Solving for p, Initial residual = 0.01496106344, Final residual = 8.548026084e-05, No Iterations 3
DILUPBiCGStab:  Solving for p, Initial residual = 8.553304121e-05, Final residual = 7.592557767e-07, No Iterations 3
DILUPBiCGStab:  Solving for p, Initial residual = 7.593323478e-07, Final residual = 8.087047995e-09, No Iterations 2
time step continuity errors : sum local = 4.407719027e-14, global = -3.236294195e-14, cumulative = 1.898168854e-12
DILUPBiCGStab:  Solving for omega, Initial residual = 0.9136103394, Final residual = 8.662959478e-09, No Iterations 8
DILUPBiCGStab:  Solving for k, Initial residual = 0.9160009098, Final residual = 5.088498472e-09, No Iterations 8
ExecutionTime = 6.56 s  ClockTime = 8 s

surfaceFieldValue inMassFlow write:
    total faces   = 1225
    total area    = 3.0625

    sum(inlet) of phi = -3.0625

surfaceFieldValue outMassFlow write:
    total faces   = 1225
    total area    = 3.0625

    sum(outlet) of phi = 3.0625

forces forces_object write:
    Sum of forces
        Total    : (0 0 0)
        Pressure : (0 0 0)
        Viscous  : (0 0 0)
    Sum of moments
        Total    : (0 0 0)
        Pressure : (0 0 0)
        Viscous  : (0 0 0)
    writing force and moment files.

forceCoeffs forceCoeffs_object write:
    Coefficient	Total	Pressure	Viscous	Internal
    Cd:	0	0	0	0
    Cd(f):	0	0	0	0
    Cd(r):	0	0	0	0
    Cl:	0	0	0	0
    Cl(f):	0	0	0	0
    Cl(r):	0	0	0	0
    CmPitch:	0	0	0	0
    CmRoll:	0	0	0	0
    CmYaw:	0	0	0	0
    Cs:	0	0	0	0
    Cs(f):	0	0	0	0
    Cs(r):	0	0	0	0

    writing force and moment coefficient files.

--> FOAM Warning : 
    From virtual bool Foam::functionObjects::fieldSelection::checkSelection()
    in file functionObjects/fieldSelections/fieldSelection/fieldSelection.C at line 166
    Field epsilon not found
fieldMinMax minmaxdomain write:
    min(nut) = 0.0006638387315 in cell 36890 at location (-0.458 0.85 0.85)
    max(nut) = 0.000692863013 in cell 59226 at location (-0.06231043079 0.01929966571 -0.01279387033)
    min(U) = (0.994934053 -0.05686405622 -0.0162665277) in cell 59487 at location (-0.0718236234 0.02358080696 -0.002015605353)
    max(U) = (1.001250907 0.02475752133 0.04468727051) in cell 58479 at location (-0.07253686764 0.01598392 -0.01586402011)
    min(k) = 0.008869872288 in cell 42866 at location (1.142 0.8 0.8)
    max(k) = 0.01 in cell 0 at location (-0.583 -0.85 -0.85)
    min(p) = -0.2478624148 in cell 58989 at location (-0.07229911956 0.01625151632 -0.008802018403)
    max(p) = 0.09248293917 in cell 63307 at location (0.07277461572 0.01146006835 -0.006424339618)
    min(omega) = 13.34282156 in cell 42871 at location (1.142 0.85 0.8)
    max(omega) = 15 in cell 0 at location (-0.583 -0.85 -0.85)

yPlus yplus write:
    writing field yPlus
Courant Number mean: 2.315660709 max: 2000
Time = 0.15

inverseDistance : detected 124 mesh regions
    zone:0 nCells:42875  voxels:(39 39 39) bb:(-0.5830030311 -0.8750030311 -0.8750030311) (1.167003031 0.8750030311 0.8750030311)
    zone:1 nCells:10240  voxels:(39 39 39) bb:(-0.08244085252 -0.02724556881 -0.02522752424) (0.08244085252 0.163127529 0.1719793314)
    zone:2 nCells:0  voxels:(39 39 39) bb:(-4.083003031 -4.375003031 -4.375003031) (-2.332996969 -2.624996969 -2.624996969)
    zone:3 nCells:0  voxels:(39 39 39) bb:(-4.083003031 -4.375003031 -4.375003031) (-2.332996969 -2.624996969 -2.624996969)
    zone:4 nCells:0  voxels:(39 39 39) bb:(-4.083003031 -4.375003031 -4.375003031) (-2.332996969 -2.624996969 -2.624996969)
    zone:5 nCells:0  voxels:(39 39 39) bb:(-4.083003031 -4.375003031 -4.375003031) (-2.332996969 -2.624996969 -2.624996969)
    zone:6 nCells:0  voxels:(39 39 39) bb:(-4.083003031 -4.375003031 -4.375003031) (-2.332996969 -2.624996969 -2.624996969)
    zone:7 nCells:0  voxels:(39 39 39) bb:(-4.083003031 -4.375003031 -4.375003031) (-2.332996969 -2.624996969 -2.624996969)
    zone:8 nCells:0  voxels:(39 39 39) bb:(-4.083003031 -4.375003031 -4.375003031) (-2.332996969 -2.624996969 -2.624996969)
    zone:9 nCells:0  voxels:(39 39 39) bb:(-4.083003031 -4.375003031 -4.375003031) (-2.332996969 -2.624996969 -2.624996969)
    zone:10 nCells:0  voxels:(39 39 39) bb:(-4.083003031 -4.375003031 -4.375003031) (-2.332996969 -2.624996969 -2.624996969)
    zone:11 nCells:0  voxels:(39 39 39) bb:(-4.083003031 -4.375003031 -4.375003031) (-2.332996969 -2.624996969 -2.624996969)
    zone:12 nCells:0  voxels:(39 39 39) bb:(-4.083003031 -4.375003031 -4.375003031) (-2.332996969 -2.624996969 -2.624996969)
    zone:13 nCells:0  voxels:(39 39 39) bb:(-4.083003031 -4.375003031 -4.375003031) (-2.332996969 -2.624996969 -2.624996969)
    zone:14 nCells:0  voxels:(39 39 39) bb:(-4.083003031 -4.375003031 -4.375003031) (-2.332996969 -2.624996969 -2.624996969)
    zone:15 nCells:0  voxels:(39 39 39) bb:(-4.083003031 -4.375003031 -4.375003031) (-2.332996969 -2.624996969 -2.624996969)
    zone:16 nCells:0  voxels:(39 39 39) bb:(-4.083003031 -4.375003031 -4.375003031) (-2.332996969 -2.624996969 -2.624996969)
    zone:17 nCells:0  voxels:(39 39 39) bb:(-4.083003031 -4.375003031 -4.375003031) (-2.332996969 -2.624996969 -2.624996969)
    zone:18 nCells:0  voxels:(39 39 39) bb:(-4.083003031 -4.375003031 -4.375003031) (-2.332996969 -2.624996969 -2.624996969)
    zone:19 nCells:0  voxels:(39 39 39) bb:(-4.083003031 -4.375003031 -4.375003031) (-2.332996969 -2.624996969 -2.624996969)
    zone:20 nCells:0  voxels:(39 39 39) bb:(-4.083003031 -4.375003031 -4.375003031) (-2.332996969 -2.624996969 -2.624996969)
    zone:21 nCells:0  voxels:(39 39 39) bb:(-4.083003031 -4.375003031 -4.375003031) (-2.332996969 -2.624996969 -2.624996969)
    zone:22 nCells:0  voxels:(39 39 39) bb:(-4.083003031 -4.375003031 -4.375003031) (-2.332996969 -2.624996969 -2.624996969)
    zone:23 nCells:0  voxels:(39 39 39) bb:(-4.083003031 -4.375003031 -4.375003031) (-2.332996969 -2.624996969 -2.624996969)
    zone:24 nCells:0  voxels:(39 39 39) bb:(-4.083003031 -4.375003031 -4.375003031) (-2.332996969 -2.624996969 -2.624996969)
    zone:25 nCells:0  voxels:(39 39 39) bb:(-4.083003031 -4.375003031 -4.375003031) (-2.332996969 -2.624996969 -2.624996969)
    zone:26 nCells:0  voxels:(39 39 39) bb:(-4.083003031 -4.375003031 -4.375003031) (-2.332996969 -2.624996969 -2.624996969)
    zone:27 nCells:0  voxels:(39 39 39) bb:(-4.083003031 -4.375003031 -4.375003031) (-2.332996969 -2.624996969 -2.624996969)
    zone:28 nCells:0  voxels:(39 39 39) bb:(-4.083003031 -4.375003031 -4.375003031) (-2.332996969 -2.624996969 -2.624996969)
    zone:29 nCells:0  voxels:(39 39 39) bb:(-4.083003031 -4.375003031 -4.375003031) (-2.332996969 -2.624996969 -2.624996969)
    zone:30 nCells:0  voxels:(39 39 39) bb:(-4.083003031 -4.375003031 -4.375003031) (-2.332996969 -2.624996969 -2.624996969)
    zone:31 nCells:0  voxels:(39 39 39) bb:(-4.083003031 -4.375003031 -4.375003031) (-2.332996969 -2.624996969 -2.624996969)
    zone:32 nCells:0  voxels:(39 39 39) bb:(-4.083003031 -4.375003031 -4.375003031) (-2.332996969 -2.624996969 -2.624996969)
    zone:33 nCells:0  voxels:(39 39 39) bb:(-4.083003031 -4.375003031 -4.375003031) (-2.332996969 -2.624996969 -2.624996969)
    zone:34 nCells:0  voxels:(39 39 39) bb:(-4.083003031 -4.375003031 -4.375003031) (-2.332996969 -2.624996969 -2.624996969)
    zone:35 nCells:0  voxels:(39 39 39) bb:(-4.083003031 -4.375003031 -4.375003031) (-2.332996969 -2.624996969 -2.624996969)
    zone:36 nCells:0  voxels:(39 39 39) bb:(-4.083003031 -4.375003031 -4.375003031) (-2.332996969 -2.624996969 -2.624996969)
    zone:37 nCells:0  voxels:(39 39 39) bb:(-4.083003031 -4.375003031 -4.375003031) (-2.332996969 -2.624996969 -2.624996969)
    zone:38 nCells:0  voxels:(39 39 39) bb:(-4.083003031 -4.375003031 -4.375003031) (-2.332996969 -2.624996969 -2.624996969)
    zone:39 nCells:0  voxels:(39 39 39) bb:(-4.083003031 -4.375003031 -4.375003031) (-2.332996969 -2.624996969 -2.624996969)
    zone:40 nCells:0  voxels:(39 39 39) bb:(-4.083003031 -4.375003031 -4.375003031) (-2.332996969 -2.624996969 -2.624996969)
    zone:41 nCells:0  voxels:(39 39 39) bb:(-4.083003031 -4.375003031 -4.375003031) (-2.332996969 -2.624996969 -2.624996969)
    zone:42 nCells:0  voxels:(39 39 39) bb:(-4.083003031 -4.375003031 -4.375003031) (-2.332996969 -2.624996969 -2.624996969)
    zone:43 nCells:0  voxels:(39 39 39) bb:(-4.083003031 -4.375003031 -4.375003031) (-2.332996969 -2.624996969 -2.624996969)
    zone:44 nCells:0  voxels:(39 39 39) bb:(-4.083003031 -4.375003031 -4.375003031) (-2.332996969 -2.624996969 -2.624996969)
    zone:45 nCells:0  voxels:(39 39 39) bb:(-4.083003031 -4.375003031 -4.375003031) (-2.332996969 -2.624996969 -2.624996969)
    zone:46 nCells:0  voxels:(39 39 39) bb:(-4.083003031 -4.375003031 -4.375003031) (-2.332996969 -2.624996969 -2.624996969)
    zone:47 nCells:0  voxels:(39 39 39) bb:(-4.083003031 -4.375003031 -4.375003031) (-2.332996969 -2.624996969 -2.624996969)
    zone:48 nCells:0  voxels:(39 39 39) bb:(-4.083003031 -4.375003031 -4.375003031) (-2.332996969 -2.624996969 -2.624996969)
    zone:49 nCells:0  voxels:(39 39 39) bb:(-4.083003031 -4.375003031 -4.375003031) (-2.332996969 -2.624996969 -2.624996969)
    zone:50 nCells:0  voxels:(39 39 39) bb:(-4.083003031 -4.375003031 -4.375003031) (-2.332996969 -2.624996969 -2.624996969)
    zone:51 nCells:0  voxels:(39 39 39) bb:(-4.083003031 -4.375003031 -4.375003031) (-2.332996969 -2.624996969 -2.624996969)
    zone:52 nCells:0  voxels:(39 39 39) bb:(-4.083003031 -4.375003031 -4.375003031) (-2.332996969 -2.624996969 -2.624996969)
    zone:53 nCells:0  voxels:(39 39 39) bb:(-4.083003031 -4.375003031 -4.375003031) (-2.332996969 -2.624996969 -2.624996969)
    zone:54 nCells:0  voxels:(39 39 39) bb:(-4.083003031 -4.375003031 -4.375003031) (-2.332996969 -2.624996969 -2.624996969)
    zone:55 nCells:0  voxels:(39 39 39) bb:(-4.083003031 -4.375003031 -4.375003031) (-2.332996969 -2.624996969 -2.624996969)
    zone:56 nCells:0  voxels:(39 39 39) bb:(-4.083003031 -4.375003031 -4.375003031) (-2.332996969 -2.624996969 -2.624996969)
    zone:57 nCells:0  voxels:(39 39 39) bb:(-4.083003031 -4.375003031 -4.375003031) (-2.332996969 -2.624996969 -2.624996969)
    zone:58 nCells:0  voxels:(39 39 39) bb:(-4.083003031 -4.375003031 -4.375003031) (-2.332996969 -2.624996969 -2.624996969)
    zone:59 nCells:0  voxels:(39 39 39) bb:(-4.083003031 -4.375003031 -4.375003031) (-2.332996969 -2.624996969 -2.624996969)
    zone:60 nCells:0  voxels:(39 39 39) bb:(-4.083003031 -4.375003031 -4.375003031) (-2.332996969 -2.624996969 -2.624996969)
    zone:61 nCells:0  voxels:(39 39 39) bb:(-4.083003031 -4.375003031 -4.375003031) (-2.332996969 -2.624996969 -2.624996969)
    zone:62 nCells:0  voxels:(39 39 39) bb:(-4.083003031 -4.375003031 -4.375003031) (-2.332996969 -2.624996969 -2.624996969)
    zone:63 nCells:0  voxels:(39 39 39) bb:(-4.083003031 -4.375003031 -4.375003031) (-2.332996969 -2.624996969 -2.624996969)
    zone:64 nCells:0  voxels:(39 39 39) bb:(-4.083003031 -4.375003031 -4.375003031) (-2.332996969 -2.624996969 -2.624996969)
    zone:65 nCells:0  voxels:(39 39 39) bb:(-4.083003031 -4.375003031 -4.375003031) (-2.332996969 -2.624996969 -2.624996969)
    zone:66 nCells:0  voxels:(39 39 39) bb:(-4.083003031 -4.375003031 -4.375003031) (-2.332996969 -2.624996969 -2.624996969)
    zone:67 nCells:0  voxels:(39 39 39) bb:(-4.083003031 -4.375003031 -4.375003031) (-2.332996969 -2.624996969 -2.624996969)
    zone:68 nCells:0  voxels:(39 39 39) bb:(-4.083003031 -4.375003031 -4.375003031) (-2.332996969 -2.624996969 -2.624996969)
    zone:69 nCells:0  voxels:(39 39 39) bb:(-4.083003031 -4.375003031 -4.375003031) (-2.332996969 -2.624996969 -2.624996969)
    zone:70 nCells:0  voxels:(39 39 39) bb:(-4.083003031 -4.375003031 -4.375003031) (-2.332996969 -2.624996969 -2.624996969)
    zone:71 nCells:0  voxels:(39 39 39) bb:(-4.083003031 -4.375003031 -4.375003031) (-2.332996969 -2.624996969 -2.624996969)
    zone:72 nCells:0  voxels:(39 39 39) bb:(-4.083003031 -4.375003031 -4.375003031) (-2.332996969 -2.624996969 -2.624996969)
    zone:73 nCells:0  voxels:(39 39 39) bb:(-4.083003031 -4.375003031 -4.375003031) (-2.332996969 -2.624996969 -2.624996969)
    zone:74 nCells:0  voxels:(39 39 39) bb:(-4.083003031 -4.375003031 -4.375003031) (-2.332996969 -2.624996969 -2.624996969)
    zone:75 nCells:0  voxels:(39 39 39) bb:(-4.083003031 -4.375003031 -4.375003031) (-2.332996969 -2.624996969 -2.624996969)
    zone:76 nCells:0  voxels:(39 39 39) bb:(-4.083003031 -4.375003031 -4.375003031) (-2.332996969 -2.624996969 -2.624996969)
    zone:77 nCells:0  voxels:(39 39 39) bb:(-4.083003031 -4.375003031 -4.375003031) (-2.332996969 -2.624996969 -2.624996969)
    zone:78 nCells:0  voxels:(39 39 39) bb:(-4.083003031 -4.375003031 -4.375003031) (-2.332996969 -2.624996969 -2.624996969)
    zone:79 nCells:0  voxels:(39 39 39) bb:(-4.083003031 -4.375003031 -4.375003031) (-2.332996969 -2.624996969 -2.624996969)
    zone:80 nCells:0  voxels:(39 39 39) bb:(-4.083003031 -4.375003031 -4.375003031) (-2.332996969 -2.624996969 -2.624996969)
    zone:81 nCells:0  voxels:(39 39 39) bb:(-4.083003031 -4.375003031 -4.375003031) (-2.332996969 -2.624996969 -2.624996969)
    zone:82 nCells:0  voxels:(39 39 39) bb:(-4.083003031 -4.375003031 -4.375003031) (-2.332996969 -2.624996969 -2.624996969)
    zone:83 nCells:0  voxels:(39 39 39) bb:(-4.083003031 -4.375003031 -4.375003031) (-2.332996969 -2.624996969 -2.624996969)
    zone:84 nCells:0  voxels:(39 39 39) bb:(-4.083003031 -4.375003031 -4.375003031) (-2.332996969 -2.624996969 -2.624996969)
    zone:85 nCells:0  voxels:(39 39 39) bb:(-4.083003031 -4.375003031 -4.375003031) (-2.332996969 -2.624996969 -2.624996969)
    zone:86 nCells:0  voxels:(39 39 39) bb:(-4.083003031 -4.375003031 -4.375003031) (-2.332996969 -2.624996969 -2.624996969)
    zone:87 nCells:0  voxels:(39 39 39) bb:(-4.083003031 -4.375003031 -4.375003031) (-2.332996969 -2.624996969 -2.624996969)
    zone:88 nCells:0  voxels:(39 39 39) bb:(-4.083003031 -4.375003031 -4.375003031) (-2.332996969 -2.624996969 -2.624996969)
    zone:89 nCells:0  voxels:(39 39 39) bb:(-4.083003031 -4.375003031 -4.375003031) (-2.332996969 -2.624996969 -2.624996969)
    zone:90 nCells:0  voxels:(39 39 39) bb:(-4.083003031 -4.375003031 -4.375003031) (-2.332996969 -2.624996969 -2.624996969)
    zone:91 nCells:0  voxels:(39 39 39) bb:(-4.083003031 -4.375003031 -4.375003031) (-2.332996969 -2.624996969 -2.624996969)
    zone:92 nCells:0  voxels:(39 39 39) bb:(-4.083003031 -4.375003031 -4.375003031) (-2.332996969 -2.624996969 -2.624996969)
    zone:93 nCells:0  voxels:(39 39 39) bb:(-4.083003031 -4.375003031 -4.375003031) (-2.332996969 -2.624996969 -2.624996969)
    zone:94 nCells:0  voxels:(39 39 39) bb:(-4.083003031 -4.375003031 -4.375003031) (-2.332996969 -2.624996969 -2.624996969)
    zone:95 nCells:0  voxels:(39 39 39) bb:(-4.083003031 -4.375003031 -4.375003031) (-2.332996969 -2.624996969 -2.624996969)
    zone:96 nCells:0  voxels:(39 39 39) bb:(-4.083003031 -4.375003031 -4.375003031) (-2.332996969 -2.624996969 -2.624996969)
    zone:97 nCells:0  voxels:(39 39 39) bb:(-4.083003031 -4.375003031 -4.375003031) (-2.332996969 -2.624996969 -2.624996969)
    zone:98 nCells:0  voxels:(39 39 39) bb:(-4.083003031 -4.375003031 -4.375003031) (-2.332996969 -2.624996969 -2.624996969)
    zone:99 nCells:0  voxels:(39 39 39) bb:(-4.083003031 -4.375003031 -4.375003031) (-2.332996969 -2.624996969 -2.624996969)
    zone:100 nCells:0  voxels:(39 39 39) bb:(-4.083003031 -4.375003031 -4.375003031) (-2.332996969 -2.624996969 -2.624996969)
    zone:101 nCells:0  voxels:(39 39 39) bb:(-4.083003031 -4.375003031 -4.375003031) (-2.332996969 -2.624996969 -2.624996969)
    zone:102 nCells:0  voxels:(39 39 39) bb:(-4.083003031 -4.375003031 -4.375003031) (-2.332996969 -2.624996969 -2.624996969)
    zone:103 nCells:0  voxels:(39 39 39) bb:(-4.083003031 -4.375003031 -4.375003031) (-2.332996969 -2.624996969 -2.624996969)
    zone:104 nCells:0  voxels:(39 39 39) bb:(-4.083003031 -4.375003031 -4.375003031) (-2.332996969 -2.624996969 -2.624996969)
    zone:105 nCells:0  voxels:(39 39 39) bb:(-4.083003031 -4.375003031 -4.375003031) (-2.332996969 -2.624996969 -2.624996969)
    zone:106 nCells:0  voxels:(39 39 39) bb:(-4.083003031 -4.375003031 -4.375003031) (-2.332996969 -2.624996969 -2.624996969)
    zone:107 nCells:0  voxels:(39 39 39) bb:(-4.083003031 -4.375003031 -4.375003031) (-2.332996969 -2.624996969 -2.624996969)
    zone:108 nCells:0  voxels:(39 39 39) bb:(-4.083003031 -4.375003031 -4.375003031) (-2.332996969 -2.624996969 -2.624996969)
    zone:109 nCells:0  voxels:(39 39 39) bb:(-4.083003031 -4.375003031 -4.375003031) (-2.332996969 -2.624996969 -2.624996969)
    zone:110 nCells:0  voxels:(39 39 39) bb:(-4.083003031 -4.375003031 -4.375003031) (-2.332996969 -2.624996969 -2.624996969)
    zone:111 nCells:0  voxels:(39 39 39) bb:(-4.083003031 -4.375003031 -4.375003031) (-2.332996969 -2.624996969 -2.624996969)
    zone:112 nCells:0  voxels:(39 39 39) bb:(-4.083003031 -4.375003031 -4.375003031) (-2.332996969 -2.624996969 -2.624996969)
    zone:113 nCells:0  voxels:(39 39 39) bb:(-4.083003031 -4.375003031 -4.375003031) (-2.332996969 -2.624996969 -2.624996969)
    zone:114 nCells:0  voxels:(39 39 39) bb:(-4.083003031 -4.375003031 -4.375003031) (-2.332996969 -2.624996969 -2.624996969)
    zone:115 nCells:0  voxels:(39 39 39) bb:(-4.083003031 -4.375003031 -4.375003031) (-2.332996969 -2.624996969 -2.624996969)
    zone:116 nCells:0  voxels:(39 39 39) bb:(-4.083003031 -4.375003031 -4.375003031) (-2.332996969 -2.624996969 -2.624996969)
    zone:117 nCells:0  voxels:(39 39 39) bb:(-4.083003031 -4.375003031 -4.375003031) (-2.332996969 -2.624996969 -2.624996969)
    zone:118 nCells:0  voxels:(39 39 39) bb:(-4.083003031 -4.375003031 -4.375003031) (-2.332996969 -2.624996969 -2.624996969)
    zone:119 nCells:0  voxels:(39 39 39) bb:(-4.083003031 -4.375003031 -4.375003031) (-2.332996969 -2.624996969 -2.624996969)
    zone:120 nCells:0  voxels:(39 39 39) bb:(-4.083003031 -4.375003031 -4.375003031) (-2.332996969 -2.624996969 -2.624996969)
    zone:121 nCells:0  voxels:(39 39 39) bb:(-4.083003031 -4.375003031 -4.375003031) (-2.332996969 -2.624996969 -2.624996969)
    zone:122 nCells:0  voxels:(39 39 39) bb:(-4.083003031 -4.375003031 -4.375003031) (-2.332996969 -2.624996969 -2.624996969)
    zone:123 nCells:10240  voxels:(39 39 39) bb:(-0.08244085252 -0.02724556881 -0.1719793314) (0.08244085252 0.163127529 0.02522752424)
Overset analysis : nCells : 63355
    calculated   : 56555
    interpolated : 6800 (from local:6800  mixed local/remote:0  remote:0)
    hole         : 0

Mesh Courant Number mean: 0.0007798708931 max: 5.000020541
PIMPLE: iteration 1
DILUPBiCGStab:  Solving for Ux, Initial residual = 0.002381756295, Final residual = 2.710125616e-09, No Iterations 9
DILUPBiCGStab:  Solving for Uy, Initial residual = 0.01523669893, Final residual = 4.393936017e-09, No Iterations 9
DILUPBiCGStab:  Solving for Uz, Initial residual = 0.004449382405, Final residual = 6.584369486e-09, No Iterations 9
DILUPBiCGStab:  Solving for p, Initial residual = 0.5041811571, Final residual = 0.002539952513, No Iterations 2
DILUPBiCGStab:  Solving for p, Initial residual = 0.004664377923, Final residual = 3.846796263e-05, No Iterations 3
DILUPBiCGStab:  Solving for p, Initial residual = 3.716568476e-05, Final residual = 6.209759347e-07, No Iterations 2
time step continuity errors : sum local = 2.565569999e-12, global = 1.146820423e-12, cumulative = 3.044989277e-12
DILUPBiCGStab:  Solving for p, Initial residual = 0.06578817405, Final residual = 0.0006087332509, No Iterations 3
DILUPBiCGStab:  Solving for p, Initial residual = 0.0006648210278, Final residual = 3.126925687e-06, No Iterations 3
DILUPBiCGStab:  Solving for p, Initial residual = 3.134259531e-06, Final residual = 3.903200518e-08, No Iterations 2
time step continuity errors : sum local = 1.440800913e-13, global = 1.457067958e-14, cumulative = 3.059559957e-12
DILUPBiCGStab:  Solving for p, Initial residual = 0.02806769951, Final residual = 0.0001961829932, No Iterations 3
DILUPBiCGStab:  Solving for p, Initial residual = 0.0001986230125, Final residual = 1.964505589e-06, No Iterations 2
DILUPBiCGStab:  Solving for p, Initial residual = 1.965368671e-06, Final residual = 4.868434731e-08, No Iterations 2
time step continuity errors : sum local = 1.757970987e-13, global = 2.058311099e-14, cumulative = 3.080143068e-12
DILUPBiCGStab:  Solving for omega, Initial residual = 0.7618548612, Final residual = 4.193984024e-09, No Iterations 8
DILUPBiCGStab:  Solving for k, Initial residual = 0.7640632102, Final residual = 5.199850408e-09, No Iterations 8
ExecutionTime = 10 s  ClockTime = 13 s

surfaceFieldValue inMassFlow write:
    total faces   = 1225
    total area    = 3.0625

    sum(inlet) of phi = -3.0625

surfaceFieldValue outMassFlow write:
    total faces   = 1225
    total area    = 3.0625

    sum(outlet) of phi = 3.0625

forces forces_object write:
    Sum of forces
        Total    : (0 0 0)
        Pressure : (0 0 0)
        Viscous  : (0 0 0)
    Sum of moments
        Total    : (0 0 0)
        Pressure : (0 0 0)
        Viscous  : (0 0 0)
    writing force and moment files.

forceCoeffs forceCoeffs_object write:
    Coefficient	Total	Pressure	Viscous	Internal
    Cd:	0	0	0	0
    Cd(f):	0	0	0	0
    Cd(r):	0	0	0	0
    Cl:	0	0	0	0
    Cl(f):	0	0	0	0
    Cl(r):	0	0	0	0
    CmPitch:	0	0	0	0
    CmRoll:	0	0	0	0
    CmYaw:	0	0	0	0
    Cs:	0	0	0	0
    Cs(f):	0	0	0	0
    Cs(r):	0	0	0	0

    writing force and moment coefficient files.

--> FOAM Warning : 
    From virtual bool Foam::functionObjects::fieldSelection::checkSelection()
    in file functionObjects/fieldSelections/fieldSelection/fieldSelection.C at line 166
    Field epsilon not found
fieldMinMax minmaxdomain write:
    min(nut) = 0.0006618653703 in cell 58988 at location (-0.07237126843 0.008936439619 -0.02238949647)
    max(nut) = 0.0006744339263 in cell 59947 at location (-0.05176113527 0.005193346381 -0.01904111417)
    min(U) = (0.9877993982 -0.002824875084 -0.0019887643) in cell 60414 at location (-0.06371829429 0.00394028784 -0.006572906892)
    max(U) = (1.006446282 0.001973316305 0.006466646998) in cell 63099 at location (0.06639268893 0.02440752115 -0.008064351681)
    min(k) = 0.008353556717 in cell 58988 at location (-0.07237126843 0.008936439619 -0.02238949647)
    max(k) = 0.01 in cell 0 at location (-0.583 -0.85 -0.85)
    min(p) = -0.05295206462 in cell 63280 at location (0.06906708357 0.02897598712 0.002979955995)
    max(p) = 0.05750833103 in cell 63149 at location (0.06906708357 0.03916713413 -0.008026429541)
    min(omega) = 12.62108533 in cell 58734 at location (-0.07126987348 0.005357761385 -0.02570310345)
    max(omega) = 15 in cell 0 at location (-0.583 -0.85 -0.85)

yPlus yplus write:
    writing field yPlus
Courant Number mean: 2.312709536 max: 2000
Time = 0.2

inverseDistance : detected 124 mesh regions
    zone:0 nCells:42875  voxels:(39 39 39) bb:(-0.5830030311 -0.8750030311 -0.8750030311) (1.167003031 0.8750030311 0.8750030311)
    zone:1 nCells:10240  voxels:(39 39 39) bb:(-0.08089499085 -0.04672463025 -0.02324566534) (0.08089499085 0.135809026 0.2023098171)
    zone:2 nCells:0  voxels:(39 39 39) bb:(-4.083003031 -4.375003031 -4.375003031) (-2.332996969 -2.624996969 -2.624996969)
    zone:3 nCells:0  voxels:(39 39 39) bb:(-4.083003031 -4.375003031 -4.375003031) (-2.332996969 -2.624996969 -2.624996969)
    zone:4 nCells:0  voxels:(39 39 39) bb:(-4.083003031 -4.375003031 -4.375003031) (-2.332996969 -2.624996969 -2.624996969)
    zone:5 nCells:0  voxels:(39 39 39) bb:(-4.083003031 -4.375003031 -4.375003031) (-2.332996969 -2.624996969 -2.624996969)
    zone:6 nCells:0  voxels:(39 39 39) bb:(-4.083003031 -4.375003031 -4.375003031) (-2.332996969 -2.624996969 -2.624996969)
    zone:7 nCells:0  voxels:(39 39 39) bb:(-4.083003031 -4.375003031 -4.375003031) (-2.332996969 -2.624996969 -2.624996969)
    zone:8 nCells:0  voxels:(39 39 39) bb:(-4.083003031 -4.375003031 -4.375003031) (-2.332996969 -2.624996969 -2.624996969)
    zone:9 nCells:0  voxels:(39 39 39) bb:(-4.083003031 -4.375003031 -4.375003031) (-2.332996969 -2.624996969 -2.624996969)
    zone:10 nCells:0  voxels:(39 39 39) bb:(-4.083003031 -4.375003031 -4.375003031) (-2.332996969 -2.624996969 -2.624996969)
    zone:11 nCells:0  voxels:(39 39 39) bb:(-4.083003031 -4.375003031 -4.375003031) (-2.332996969 -2.624996969 -2.624996969)
    zone:12 nCells:0  voxels:(39 39 39) bb:(-4.083003031 -4.375003031 -4.375003031) (-2.332996969 -2.624996969 -2.624996969)
    zone:13 nCells:0  voxels:(39 39 39) bb:(-4.083003031 -4.375003031 -4.375003031) (-2.332996969 -2.624996969 -2.624996969)
    zone:14 nCells:0  voxels:(39 39 39) bb:(-4.083003031 -4.375003031 -4.375003031) (-2.332996969 -2.624996969 -2.624996969)
    zone:15 nCells:0  voxels:(39 39 39) bb:(-4.083003031 -4.375003031 -4.375003031) (-2.332996969 -2.624996969 -2.624996969)
    zone:16 nCells:0  voxels:(39 39 39) bb:(-4.083003031 -4.375003031 -4.375003031) (-2.332996969 -2.624996969 -2.624996969)
    zone:17 nCells:0  voxels:(39 39 39) bb:(-4.083003031 -4.375003031 -4.375003031) (-2.332996969 -2.624996969 -2.624996969)
    zone:18 nCells:0  voxels:(39 39 39) bb:(-4.083003031 -4.375003031 -4.375003031) (-2.332996969 -2.624996969 -2.624996969)
    zone:19 nCells:0  voxels:(39 39 39) bb:(-4.083003031 -4.375003031 -4.375003031) (-2.332996969 -2.624996969 -2.624996969)
    zone:20 nCells:0  voxels:(39 39 39) bb:(-4.083003031 -4.375003031 -4.375003031) (-2.332996969 -2.624996969 -2.624996969)
    zone:21 nCells:0  voxels:(39 39 39) bb:(-4.083003031 -4.375003031 -4.375003031) (-2.332996969 -2.624996969 -2.624996969)
    zone:22 nCells:0  voxels:(39 39 39) bb:(-4.083003031 -4.375003031 -4.375003031) (-2.332996969 -2.624996969 -2.624996969)
    zone:23 nCells:0  voxels:(39 39 39) bb:(-4.083003031 -4.375003031 -4.375003031) (-2.332996969 -2.624996969 -2.624996969)
    zone:24 nCells:0  voxels:(39 39 39) bb:(-4.083003031 -4.375003031 -4.375003031) (-2.332996969 -2.624996969 -2.624996969)
    zone:25 nCells:0  voxels:(39 39 39) bb:(-4.083003031 -4.375003031 -4.375003031) (-2.332996969 -2.624996969 -2.624996969)
    zone:26 nCells:0  voxels:(39 39 39) bb:(-4.083003031 -4.375003031 -4.375003031) (-2.332996969 -2.624996969 -2.624996969)
    zone:27 nCells:0  voxels:(39 39 39) bb:(-4.083003031 -4.375003031 -4.375003031) (-2.332996969 -2.624996969 -2.624996969)
    zone:28 nCells:0  voxels:(39 39 39) bb:(-4.083003031 -4.375003031 -4.375003031) (-2.332996969 -2.624996969 -2.624996969)
    zone:29 nCells:0  voxels:(39 39 39) bb:(-4.083003031 -4.375003031 -4.375003031) (-2.332996969 -2.624996969 -2.624996969)
    zone:30 nCells:0  voxels:(39 39 39) bb:(-4.083003031 -4.375003031 -4.375003031) (-2.332996969 -2.624996969 -2.624996969)
    zone:31 nCells:0  voxels:(39 39 39) bb:(-4.083003031 -4.375003031 -4.375003031) (-2.332996969 -2.624996969 -2.624996969)
    zone:32 nCells:0  voxels:(39 39 39) bb:(-4.083003031 -4.375003031 -4.375003031) (-2.332996969 -2.624996969 -2.624996969)
    zone:33 nCells:0  voxels:(39 39 39) bb:(-4.083003031 -4.375003031 -4.375003031) (-2.332996969 -2.624996969 -2.624996969)
    zone:34 nCells:0  voxels:(39 39 39) bb:(-4.083003031 -4.375003031 -4.375003031) (-2.332996969 -2.624996969 -2.624996969)
    zone:35 nCells:0  voxels:(39 39 39) bb:(-4.083003031 -4.375003031 -4.375003031) (-2.332996969 -2.624996969 -2.624996969)
    zone:36 nCells:0  voxels:(39 39 39) bb:(-4.083003031 -4.375003031 -4.375003031) (-2.332996969 -2.624996969 -2.624996969)
    zone:37 nCells:0  voxels:(39 39 39) bb:(-4.083003031 -4.375003031 -4.375003031) (-2.332996969 -2.624996969 -2.624996969)
    zone:38 nCells:0  voxels:(39 39 39) bb:(-4.083003031 -4.375003031 -4.375003031) (-2.332996969 -2.624996969 -2.624996969)
    zone:39 nCells:0  voxels:(39 39 39) bb:(-4.083003031 -4.375003031 -4.375003031) (-2.332996969 -2.624996969 -2.624996969)
    zone:40 nCells:0  voxels:(39 39 39) bb:(-4.083003031 -4.375003031 -4.375003031) (-2.332996969 -2.624996969 -2.624996969)
    zone:41 nCells:0  voxels:(39 39 39) bb:(-4.083003031 -4.375003031 -4.375003031) (-2.332996969 -2.624996969 -2.624996969)
    zone:42 nCells:0  voxels:(39 39 39) bb:(-4.083003031 -4.375003031 -4.375003031) (-2.332996969 -2.624996969 -2.624996969)
    zone:43 nCells:0  voxels:(39 39 39) bb:(-4.083003031 -4.375003031 -4.375003031) (-2.332996969 -2.624996969 -2.624996969)
    zone:44 nCells:0  voxels:(39 39 39) bb:(-4.083003031 -4.375003031 -4.375003031) (-2.332996969 -2.624996969 -2.624996969)
    zone:45 nCells:0  voxels:(39 39 39) bb:(-4.083003031 -4.375003031 -4.375003031) (-2.332996969 -2.624996969 -2.624996969)
    zone:46 nCells:0  voxels:(39 39 39) bb:(-4.083003031 -4.375003031 -4.375003031) (-2.332996969 -2.624996969 -2.624996969)
    zone:47 nCells:0  voxels:(39 39 39) bb:(-4.083003031 -4.375003031 -4.375003031) (-2.332996969 -2.624996969 -2.624996969)
    zone:48 nCells:0  voxels:(39 39 39) bb:(-4.083003031 -4.375003031 -4.375003031) (-2.332996969 -2.624996969 -2.624996969)
    zone:49 nCells:0  voxels:(39 39 39) bb:(-4.083003031 -4.375003031 -4.375003031) (-2.332996969 -2.624996969 -2.624996969)
    zone:50 nCells:0  voxels:(39 39 39) bb:(-4.083003031 -4.375003031 -4.375003031) (-2.332996969 -2.624996969 -2.624996969)
    zone:51 nCells:0  voxels:(39 39 39) bb:(-4.083003031 -4.375003031 -4.375003031) (-2.332996969 -2.624996969 -2.624996969)
    zone:52 nCells:0  voxels:(39 39 39) bb:(-4.083003031 -4.375003031 -4.375003031) (-2.332996969 -2.624996969 -2.624996969)
    zone:53 nCells:0  voxels:(39 39 39) bb:(-4.083003031 -4.375003031 -4.375003031) (-2.332996969 -2.624996969 -2.624996969)
    zone:54 nCells:0  voxels:(39 39 39) bb:(-4.083003031 -4.375003031 -4.375003031) (-2.332996969 -2.624996969 -2.624996969)
    zone:55 nCells:0  voxels:(39 39 39) bb:(-4.083003031 -4.375003031 -4.375003031) (-2.332996969 -2.624996969 -2.624996969)
    zone:56 nCells:0  voxels:(39 39 39) bb:(-4.083003031 -4.375003031 -4.375003031) (-2.332996969 -2.624996969 -2.624996969)
    zone:57 nCells:0  voxels:(39 39 39) bb:(-4.083003031 -4.375003031 -4.375003031) (-2.332996969 -2.624996969 -2.624996969)
    zone:58 nCells:0  voxels:(39 39 39) bb:(-4.083003031 -4.375003031 -4.375003031) (-2.332996969 -2.624996969 -2.624996969)
    zone:59 nCells:0  voxels:(39 39 39) bb:(-4.083003031 -4.375003031 -4.375003031) (-2.332996969 -2.624996969 -2.624996969)
    zone:60 nCells:0  voxels:(39 39 39) bb:(-4.083003031 -4.375003031 -4.375003031) (-2.332996969 -2.624996969 -2.624996969)
    zone:61 nCells:0  voxels:(39 39 39) bb:(-4.083003031 -4.375003031 -4.375003031) (-2.332996969 -2.624996969 -2.624996969)
    zone:62 nCells:0  voxels:(39 39 39) bb:(-4.083003031 -4.375003031 -4.375003031) (-2.332996969 -2.624996969 -2.624996969)
    zone:63 nCells:0  voxels:(39 39 39) bb:(-4.083003031 -4.375003031 -4.375003031) (-2.332996969 -2.624996969 -2.624996969)
    zone:64 nCells:0  voxels:(39 39 39) bb:(-4.083003031 -4.375003031 -4.375003031) (-2.332996969 -2.624996969 -2.624996969)
    zone:65 nCells:0  voxels:(39 39 39) bb:(-4.083003031 -4.375003031 -4.375003031) (-2.332996969 -2.624996969 -2.624996969)
    zone:66 nCells:0  voxels:(39 39 39) bb:(-4.083003031 -4.375003031 -4.375003031) (-2.332996969 -2.624996969 -2.624996969)
    zone:67 nCells:0  voxels:(39 39 39) bb:(-4.083003031 -4.375003031 -4.375003031) (-2.332996969 -2.624996969 -2.624996969)
    zone:68 nCells:0  voxels:(39 39 39) bb:(-4.083003031 -4.375003031 -4.375003031) (-2.332996969 -2.624996969 -2.624996969)
    zone:69 nCells:0  voxels:(39 39 39) bb:(-4.083003031 -4.375003031 -4.375003031) (-2.332996969 -2.624996969 -2.624996969)
    zone:70 nCells:0  voxels:(39 39 39) bb:(-4.083003031 -4.375003031 -4.375003031) (-2.332996969 -2.624996969 -2.624996969)
    zone:71 nCells:0  voxels:(39 39 39) bb:(-4.083003031 -4.375003031 -4.375003031) (-2.332996969 -2.624996969 -2.624996969)
    zone:72 nCells:0  voxels:(39 39 39) bb:(-4.083003031 -4.375003031 -4.375003031) (-2.332996969 -2.624996969 -2.624996969)
    zone:73 nCells:0  voxels:(39 39 39) bb:(-4.083003031 -4.375003031 -4.375003031) (-2.332996969 -2.624996969 -2.624996969)
    zone:74 nCells:0  voxels:(39 39 39) bb:(-4.083003031 -4.375003031 -4.375003031) (-2.332996969 -2.624996969 -2.624996969)
    zone:75 nCells:0  voxels:(39 39 39) bb:(-4.083003031 -4.375003031 -4.375003031) (-2.332996969 -2.624996969 -2.624996969)
    zone:76 nCells:0  voxels:(39 39 39) bb:(-4.083003031 -4.375003031 -4.375003031) (-2.332996969 -2.624996969 -2.624996969)
    zone:77 nCells:0  voxels:(39 39 39) bb:(-4.083003031 -4.375003031 -4.375003031) (-2.332996969 -2.624996969 -2.624996969)
    zone:78 nCells:0  voxels:(39 39 39) bb:(-4.083003031 -4.375003031 -4.375003031) (-2.332996969 -2.624996969 -2.624996969)
    zone:79 nCells:0  voxels:(39 39 39) bb:(-4.083003031 -4.375003031 -4.375003031) (-2.332996969 -2.624996969 -2.624996969)
    zone:80 nCells:0  voxels:(39 39 39) bb:(-4.083003031 -4.375003031 -4.375003031) (-2.332996969 -2.624996969 -2.624996969)
    zone:81 nCells:0  voxels:(39 39 39) bb:(-4.083003031 -4.375003031 -4.375003031) (-2.332996969 -2.624996969 -2.624996969)
    zone:82 nCells:0  voxels:(39 39 39) bb:(-4.083003031 -4.375003031 -4.375003031) (-2.332996969 -2.624996969 -2.624996969)
    zone:83 nCells:0  voxels:(39 39 39) bb:(-4.083003031 -4.375003031 -4.375003031) (-2.332996969 -2.624996969 -2.624996969)
    zone:84 nCells:0  voxels:(39 39 39) bb:(-4.083003031 -4.375003031 -4.375003031) (-2.332996969 -2.624996969 -2.624996969)
    zone:85 nCells:0  voxels:(39 39 39) bb:(-4.083003031 -4.375003031 -4.375003031) (-2.332996969 -2.624996969 -2.624996969)
    zone:86 nCells:0  voxels:(39 39 39) bb:(-4.083003031 -4.375003031 -4.375003031) (-2.332996969 -2.624996969 -2.624996969)
    zone:87 nCells:0  voxels:(39 39 39) bb:(-4.083003031 -4.375003031 -4.375003031) (-2.332996969 -2.624996969 -2.624996969)
    zone:88 nCells:0  voxels:(39 39 39) bb:(-4.083003031 -4.375003031 -4.375003031) (-2.332996969 -2.624996969 -2.624996969)
    zone:89 nCells:0  voxels:(39 39 39) bb:(-4.083003031 -4.375003031 -4.375003031) (-2.332996969 -2.624996969 -2.624996969)
    zone:90 nCells:0  voxels:(39 39 39) bb:(-4.083003031 -4.375003031 -4.375003031) (-2.332996969 -2.624996969 -2.624996969)
    zone:91 nCells:0  voxels:(39 39 39) bb:(-4.083003031 -4.375003031 -4.375003031) (-2.332996969 -2.624996969 -2.624996969)
    zone:92 nCells:0  voxels:(39 39 39) bb:(-4.083003031 -4.375003031 -4.375003031) (-2.332996969 -2.624996969 -2.624996969)
    zone:93 nCells:0  voxels:(39 39 39) bb:(-4.083003031 -4.375003031 -4.375003031) (-2.332996969 -2.624996969 -2.624996969)
    zone:94 nCells:0  voxels:(39 39 39) bb:(-4.083003031 -4.375003031 -4.375003031) (-2.332996969 -2.624996969 -2.624996969)
    zone:95 nCells:0  voxels:(39 39 39) bb:(-4.083003031 -4.375003031 -4.375003031) (-2.332996969 -2.624996969 -2.624996969)
    zone:96 nCells:0  voxels:(39 39 39) bb:(-4.083003031 -4.375003031 -4.375003031) (-2.332996969 -2.624996969 -2.624996969)
    zone:97 nCells:0  voxels:(39 39 39) bb:(-4.083003031 -4.375003031 -4.375003031) (-2.332996969 -2.624996969 -2.624996969)
    zone:98 nCells:0  voxels:(39 39 39) bb:(-4.083003031 -4.375003031 -4.375003031) (-2.332996969 -2.624996969 -2.624996969)
    zone:99 nCells:0  voxels:(39 39 39) bb:(-4.083003031 -4.375003031 -4.375003031) (-2.332996969 -2.624996969 -2.624996969)
    zone:100 nCells:0  voxels:(39 39 39) bb:(-4.083003031 -4.375003031 -4.375003031) (-2.332996969 -2.624996969 -2.624996969)
    zone:101 nCells:0  voxels:(39 39 39) bb:(-4.083003031 -4.375003031 -4.375003031) (-2.332996969 -2.624996969 -2.624996969)
    zone:102 nCells:0  voxels:(39 39 39) bb:(-4.083003031 -4.375003031 -4.375003031) (-2.332996969 -2.624996969 -2.624996969)
    zone:103 nCells:0  voxels:(39 39 39) bb:(-4.083003031 -4.375003031 -4.375003031) (-2.332996969 -2.624996969 -2.624996969)
    zone:104 nCells:0  voxels:(39 39 39) bb:(-4.083003031 -4.375003031 -4.375003031) (-2.332996969 -2.624996969 -2.624996969)
    zone:105 nCells:0  voxels:(39 39 39) bb:(-4.083003031 -4.375003031 -4.375003031) (-2.332996969 -2.624996969 -2.624996969)
    zone:106 nCells:0  voxels:(39 39 39) bb:(-4.083003031 -4.375003031 -4.375003031) (-2.332996969 -2.624996969 -2.624996969)
    zone:107 nCells:0  voxels:(39 39 39) bb:(-4.083003031 -4.375003031 -4.375003031) (-2.332996969 -2.624996969 -2.624996969)
    zone:108 nCells:0  voxels:(39 39 39) bb:(-4.083003031 -4.375003031 -4.375003031) (-2.332996969 -2.624996969 -2.624996969)
    zone:109 nCells:0  voxels:(39 39 39) bb:(-4.083003031 -4.375003031 -4.375003031) (-2.332996969 -2.624996969 -2.624996969)
    zone:110 nCells:0  voxels:(39 39 39) bb:(-4.083003031 -4.375003031 -4.375003031) (-2.332996969 -2.624996969 -2.624996969)
    zone:111 nCells:0  voxels:(39 39 39) bb:(-4.083003031 -4.375003031 -4.375003031) (-2.332996969 -2.624996969 -2.624996969)
    zone:112 nCells:0  voxels:(39 39 39) bb:(-4.083003031 -4.375003031 -4.375003031) (-2.332996969 -2.624996969 -2.624996969)
    zone:113 nCells:0  voxels:(39 39 39) bb:(-4.083003031 -4.375003031 -4.375003031) (-2.332996969 -2.624996969 -2.624996969)
    zone:114 nCells:0  voxels:(39 39 39) bb:(-4.083003031 -4.375003031 -4.375003031) (-2.332996969 -2.624996969 -2.624996969)
    zone:115 nCells:0  voxels:(39 39 39) bb:(-4.083003031 -4.375003031 -4.375003031) (-2.332996969 -2.624996969 -2.624996969)
    zone:116 nCells:0  voxels:(39 39 39) bb:(-4.083003031 -4.375003031 -4.375003031) (-2.332996969 -2.624996969 -2.624996969)
    zone:117 nCells:0  voxels:(39 39 39) bb:(-4.083003031 -4.375003031 -4.375003031) (-2.332996969 -2.624996969 -2.624996969)
    zone:118 nCells:0  voxels:(39 39 39) bb:(-4.083003031 -4.375003031 -4.375003031) (-2.332996969 -2.624996969 -2.624996969)
[...]

yPlus yplus write:
    writing field yPlus
Courant Number mean: 2.316977806 max: 2000
Time = 1

inverseDistance : detected 124 mesh regions
    zone:0 nCells:42875  voxels:(39 39 39) bb:(-0.5830030311 -0.8750030311 -0.8750030311) (1.167003031 0.8750030311 0.8750030311)
    zone:1 nCells:10240  voxels:(39 39 39) bb:(-0.08201608717 -0.04615573852 -2.746410047e-07) (0.08201608717 0.04615573852 0.2000002746)
    zone:2 nCells:0  voxels:(39 39 39) bb:(-4.083003031 -4.375003031 -4.375003031) (-2.332996969 -2.624996969 -2.624996969)
    zone:3 nCells:0  voxels:(39 39 39) bb:(-4.083003031 -4.375003031 -4.375003031) (-2.332996969 -2.624996969 -2.624996969)
    zone:4 nCells:0  voxels:(39 39 39) bb:(-4.083003031 -4.375003031 -4.375003031) (-2.332996969 -2.624996969 -2.624996969)
    zone:5 nCells:0  voxels:(39 39 39) bb:(-4.083003031 -4.375003031 -4.375003031) (-2.332996969 -2.624996969 -2.624996969)
    zone:6 nCells:0  voxels:(39 39 39) bb:(-4.083003031 -4.375003031 -4.375003031) (-2.332996969 -2.624996969 -2.624996969)
    zone:7 nCells:0  voxels:(39 39 39) bb:(-4.083003031 -4.375003031 -4.375003031) (-2.332996969 -2.624996969 -2.624996969)
    zone:8 nCells:0  voxels:(39 39 39) bb:(-4.083003031 -4.375003031 -4.375003031) (-2.332996969 -2.624996969 -2.624996969)
    zone:9 nCells:0  voxels:(39 39 39) bb:(-4.083003031 -4.375003031 -4.375003031) (-2.332996969 -2.624996969 -2.624996969)
    zone:10 nCells:0  voxels:(39 39 39) bb:(-4.083003031 -4.375003031 -4.375003031) (-2.332996969 -2.624996969 -2.624996969)
    zone:11 nCells:0  voxels:(39 39 39) bb:(-4.083003031 -4.375003031 -4.375003031) (-2.332996969 -2.624996969 -2.624996969)
    zone:12 nCells:0  voxels:(39 39 39) bb:(-4.083003031 -4.375003031 -4.375003031) (-2.332996969 -2.624996969 -2.624996969)
    zone:13 nCells:0  voxels:(39 39 39) bb:(-4.083003031 -4.375003031 -4.375003031) (-2.332996969 -2.624996969 -2.624996969)
    zone:14 nCells:0  voxels:(39 39 39) bb:(-4.083003031 -4.375003031 -4.375003031) (-2.332996969 -2.624996969 -2.624996969)
    zone:15 nCells:0  voxels:(39 39 39) bb:(-4.083003031 -4.375003031 -4.375003031) (-2.332996969 -2.624996969 -2.624996969)
    zone:16 nCells:0  voxels:(39 39 39) bb:(-4.083003031 -4.375003031 -4.375003031) (-2.332996969 -2.624996969 -2.624996969)
    zone:17 nCells:0  voxels:(39 39 39) bb:(-4.083003031 -4.375003031 -4.375003031) (-2.332996969 -2.624996969 -2.624996969)
    zone:18 nCells:0  voxels:(39 39 39) bb:(-4.083003031 -4.375003031 -4.375003031) (-2.332996969 -2.624996969 -2.624996969)
    zone:19 nCells:0  voxels:(39 39 39) bb:(-4.083003031 -4.375003031 -4.375003031) (-2.332996969 -2.624996969 -2.624996969)
    zone:20 nCells:0  voxels:(39 39 39) bb:(-4.083003031 -4.375003031 -4.375003031) (-2.332996969 -2.624996969 -2.624996969)
    zone:21 nCells:0  voxels:(39 39 39) bb:(-4.083003031 -4.375003031 -4.375003031) (-2.332996969 -2.624996969 -2.624996969)
    zone:22 nCells:0  voxels:(39 39 39) bb:(-4.083003031 -4.375003031 -4.375003031) (-2.332996969 -2.624996969 -2.624996969)
    zone:23 nCells:0  voxels:(39 39 39) bb:(-4.083003031 -4.375003031 -4.375003031) (-2.332996969 -2.624996969 -2.624996969)
    zone:24 nCells:0  voxels:(39 39 39) bb:(-4.083003031 -4.375003031 -4.375003031) (-2.332996969 -2.624996969 -2.624996969)
    zone:25 nCells:0  voxels:(39 39 39) bb:(-4.083003031 -4.375003031 -4.375003031) (-2.332996969 -2.624996969 -2.624996969)
    zone:26 nCells:0  voxels:(39 39 39) bb:(-4.083003031 -4.375003031 -4.375003031) (-2.332996969 -2.624996969 -2.624996969)
    zone:27 nCells:0  voxels:(39 39 39) bb:(-4.083003031 -4.375003031 -4.375003031) (-2.332996969 -2.624996969 -2.624996969)
    zone:28 nCells:0  voxels:(39 39 39) bb:(-4.083003031 -4.375003031 -4.375003031) (-2.332996969 -2.624996969 -2.624996969)
    zone:29 nCells:0  voxels:(39 39 39) bb:(-4.083003031 -4.375003031 -4.375003031) (-2.332996969 -2.624996969 -2.624996969)
    zone:30 nCells:0  voxels:(39 39 39) bb:(-4.083003031 -4.375003031 -4.375003031) (-2.332996969 -2.624996969 -2.624996969)
    zone:31 nCells:0  voxels:(39 39 39) bb:(-4.083003031 -4.375003031 -4.375003031) (-2.332996969 -2.624996969 -2.624996969)
    zone:32 nCells:0  voxels:(39 39 39) bb:(-4.083003031 -4.375003031 -4.375003031) (-2.332996969 -2.624996969 -2.624996969)
    zone:33 nCells:0  voxels:(39 39 39) bb:(-4.083003031 -4.375003031 -4.375003031) (-2.332996969 -2.624996969 -2.624996969)
    zone:34 nCells:0  voxels:(39 39 39) bb:(-4.083003031 -4.375003031 -4.375003031) (-2.332996969 -2.624996969 -2.624996969)
    zone:35 nCells:0  voxels:(39 39 39) bb:(-4.083003031 -4.375003031 -4.375003031) (-2.332996969 -2.624996969 -2.624996969)
    zone:36 nCells:0  voxels:(39 39 39) bb:(-4.083003031 -4.375003031 -4.375003031) (-2.332996969 -2.624996969 -2.624996969)
    zone:37 nCells:0  voxels:(39 39 39) bb:(-4.083003031 -4.375003031 -4.375003031) (-2.332996969 -2.624996969 -2.624996969)
    zone:38 nCells:0  voxels:(39 39 39) bb:(-4.083003031 -4.375003031 -4.375003031) (-2.332996969 -2.624996969 -2.624996969)
    zone:39 nCells:0  voxels:(39 39 39) bb:(-4.083003031 -4.375003031 -4.375003031) (-2.332996969 -2.624996969 -2.624996969)
    zone:40 nCells:0  voxels:(39 39 39) bb:(-4.083003031 -4.375003031 -4.375003031) (-2.332996969 -2.624996969 -2.624996969)
    zone:41 nCells:0  voxels:(39 39 39) bb:(-4.083003031 -4.375003031 -4.375003031) (-2.332996969 -2.624996969 -2.624996969)
    zone:42 nCells:0  voxels:(39 39 39) bb:(-4.083003031 -4.375003031 -4.375003031) (-2.332996969 -2.624996969 -2.624996969)
    zone:43 nCells:0  voxels:(39 39 39) bb:(-4.083003031 -4.375003031 -4.375003031) (-2.332996969 -2.624996969 -2.624996969)
    zone:44 nCells:0  voxels:(39 39 39) bb:(-4.083003031 -4.375003031 -4.375003031) (-2.332996969 -2.624996969 -2.624996969)
    zone:45 nCells:0  voxels:(39 39 39) bb:(-4.083003031 -4.375003031 -4.375003031) (-2.332996969 -2.624996969 -2.624996969)
    zone:46 nCells:0  voxels:(39 39 39) bb:(-4.083003031 -4.375003031 -4.375003031) (-2.332996969 -2.624996969 -2.624996969)
    zone:47 nCells:0  voxels:(39 39 39) bb:(-4.083003031 -4.375003031 -4.375003031) (-2.332996969 -2.624996969 -2.624996969)
    zone:48 nCells:0  voxels:(39 39 39) bb:(-4.083003031 -4.375003031 -4.375003031) (-2.332996969 -2.624996969 -2.624996969)
    zone:49 nCells:0  voxels:(39 39 39) bb:(-4.083003031 -4.375003031 -4.375003031) (-2.332996969 -2.624996969 -2.624996969)
    zone:50 nCells:0  voxels:(39 39 39) bb:(-4.083003031 -4.375003031 -4.375003031) (-2.332996969 -2.624996969 -2.624996969)
    zone:51 nCells:0  voxels:(39 39 39) bb:(-4.083003031 -4.375003031 -4.375003031) (-2.332996969 -2.624996969 -2.624996969)
    zone:52 nCells:0  voxels:(39 39 39) bb:(-4.083003031 -4.375003031 -4.375003031) (-2.332996969 -2.624996969 -2.624996969)
    zone:53 nCells:0  voxels:(39 39 39) bb:(-4.083003031 -4.375003031 -4.375003031) (-2.332996969 -2.624996969 -2.624996969)
    zone:54 nCells:0  voxels:(39 39 39) bb:(-4.083003031 -4.375003031 -4.375003031) (-2.332996969 -2.624996969 -2.624996969)
    zone:55 nCells:0  voxels:(39 39 39) bb:(-4.083003031 -4.375003031 -4.375003031) (-2.332996969 -2.624996969 -2.624996969)
    zone:56 nCells:0  voxels:(39 39 39) bb:(-4.083003031 -4.375003031 -4.375003031) (-2.332996969 -2.624996969 -2.624996969)
    zone:57 nCells:0  voxels:(39 39 39) bb:(-4.083003031 -4.375003031 -4.375003031) (-2.332996969 -2.624996969 -2.624996969)
    zone:58 nCells:0  voxels:(39 39 39) bb:(-4.083003031 -4.375003031 -4.375003031) (-2.332996969 -2.624996969 -2.624996969)
    zone:59 nCells:0  voxels:(39 39 39) bb:(-4.083003031 -4.375003031 -4.375003031) (-2.332996969 -2.624996969 -2.624996969)
    zone:60 nCells:0  voxels:(39 39 39) bb:(-4.083003031 -4.375003031 -4.375003031) (-2.332996969 -2.624996969 -2.624996969)
    zone:61 nCells:0  voxels:(39 39 39) bb:(-4.083003031 -4.375003031 -4.375003031) (-2.332996969 -2.624996969 -2.624996969)
    zone:62 nCells:0  voxels:(39 39 39) bb:(-4.083003031 -4.375003031 -4.375003031) (-2.332996969 -2.624996969 -2.624996969)
    zone:63 nCells:0  voxels:(39 39 39) bb:(-4.083003031 -4.375003031 -4.375003031) (-2.332996969 -2.624996969 -2.624996969)
    zone:64 nCells:0  voxels:(39 39 39) bb:(-4.083003031 -4.375003031 -4.375003031) (-2.332996969 -2.624996969 -2.624996969)
    zone:65 nCells:0  voxels:(39 39 39) bb:(-4.083003031 -4.375003031 -4.375003031) (-2.332996969 -2.624996969 -2.624996969)
    zone:66 nCells:0  voxels:(39 39 39) bb:(-4.083003031 -4.375003031 -4.375003031) (-2.332996969 -2.624996969 -2.624996969)
    zone:67 nCells:0  voxels:(39 39 39) bb:(-4.083003031 -4.375003031 -4.375003031) (-2.332996969 -2.624996969 -2.624996969)
    zone:68 nCells:0  voxels:(39 39 39) bb:(-4.083003031 -4.375003031 -4.375003031) (-2.332996969 -2.624996969 -2.624996969)
    zone:69 nCells:0  voxels:(39 39 39) bb:(-4.083003031 -4.375003031 -4.375003031) (-2.332996969 -2.624996969 -2.624996969)
    zone:70 nCells:0  voxels:(39 39 39) bb:(-4.083003031 -4.375003031 -4.375003031) (-2.332996969 -2.624996969 -2.624996969)
    zone:71 nCells:0  voxels:(39 39 39) bb:(-4.083003031 -4.375003031 -4.375003031) (-2.332996969 -2.624996969 -2.624996969)
    zone:72 nCells:0  voxels:(39 39 39) bb:(-4.083003031 -4.375003031 -4.375003031) (-2.332996969 -2.624996969 -2.624996969)
    zone:73 nCells:0  voxels:(39 39 39) bb:(-4.083003031 -4.375003031 -4.375003031) (-2.332996969 -2.624996969 -2.624996969)
    zone:74 nCells:0  voxels:(39 39 39) bb:(-4.083003031 -4.375003031 -4.375003031) (-2.332996969 -2.624996969 -2.624996969)
    zone:75 nCells:0  voxels:(39 39 39) bb:(-4.083003031 -4.375003031 -4.375003031) (-2.332996969 -2.624996969 -2.624996969)
    zone:76 nCells:0  voxels:(39 39 39) bb:(-4.083003031 -4.375003031 -4.375003031) (-2.332996969 -2.624996969 -2.624996969)
    zone:77 nCells:0  voxels:(39 39 39) bb:(-4.083003031 -4.375003031 -4.375003031) (-2.332996969 -2.624996969 -2.624996969)
    zone:78 nCells:0  voxels:(39 39 39) bb:(-4.083003031 -4.375003031 -4.375003031) (-2.332996969 -2.624996969 -2.624996969)
    zone:79 nCells:0  voxels:(39 39 39) bb:(-4.083003031 -4.375003031 -4.375003031) (-2.332996969 -2.624996969 -2.624996969)
    zone:80 nCells:0  voxels:(39 39 39) bb:(-4.083003031 -4.375003031 -4.375003031) (-2.332996969 -2.624996969 -2.624996969)
    zone:81 nCells:0  voxels:(39 39 39) bb:(-4.083003031 -4.375003031 -4.375003031) (-2.332996969 -2.624996969 -2.624996969)
    zone:82 nCells:0  voxels:(39 39 39) bb:(-4.083003031 -4.375003031 -4.375003031) (-2.332996969 -2.624996969 -2.624996969)
    zone:83 nCells:0  voxels:(39 39 39) bb:(-4.083003031 -4.375003031 -4.375003031) (-2.332996969 -2.624996969 -2.624996969)
    zone:84 nCells:0  voxels:(39 39 39) bb:(-4.083003031 -4.375003031 -4.375003031) (-2.332996969 -2.624996969 -2.624996969)
    zone:85 nCells:0  voxels:(39 39 39) bb:(-4.083003031 -4.375003031 -4.375003031) (-2.332996969 -2.624996969 -2.624996969)
    zone:86 nCells:0  voxels:(39 39 39) bb:(-4.083003031 -4.375003031 -4.375003031) (-2.332996969 -2.624996969 -2.624996969)
    zone:87 nCells:0  voxels:(39 39 39) bb:(-4.083003031 -4.375003031 -4.375003031) (-2.332996969 -2.624996969 -2.624996969)
    zone:88 nCells:0  voxels:(39 39 39) bb:(-4.083003031 -4.375003031 -4.375003031) (-2.332996969 -2.624996969 -2.624996969)
    zone:89 nCells:0  voxels:(39 39 39) bb:(-4.083003031 -4.375003031 -4.375003031) (-2.332996969 -2.624996969 -2.624996969)
    zone:90 nCells:0  voxels:(39 39 39) bb:(-4.083003031 -4.375003031 -4.375003031) (-2.332996969 -2.624996969 -2.624996969)
    zone:91 nCells:0  voxels:(39 39 39) bb:(-4.083003031 -4.375003031 -4.375003031) (-2.332996969 -2.624996969 -2.624996969)
    zone:92 nCells:0  voxels:(39 39 39) bb:(-4.083003031 -4.375003031 -4.375003031) (-2.332996969 -2.624996969 -2.624996969)
    zone:93 nCells:0  voxels:(39 39 39) bb:(-4.083003031 -4.375003031 -4.375003031) (-2.332996969 -2.624996969 -2.624996969)
    zone:94 nCells:0  voxels:(39 39 39) bb:(-4.083003031 -4.375003031 -4.375003031) (-2.332996969 -2.624996969 -2.624996969)
    zone:95 nCells:0  voxels:(39 39 39) bb:(-4.083003031 -4.375003031 -4.375003031) (-2.332996969 -2.624996969 -2.624996969)
    zone:96 nCells:0  voxels:(39 39 39) bb:(-4.083003031 -4.375003031 -4.375003031) (-2.332996969 -2.624996969 -2.624996969)
    zone:97 nCells:0  voxels:(39 39 39) bb:(-4.083003031 -4.375003031 -4.375003031) (-2.332996969 -2.624996969 -2.624996969)
    zone:98 nCells:0  voxels:(39 39 39) bb:(-4.083003031 -4.375003031 -4.375003031) (-2.332996969 -2.624996969 -2.624996969)
    zone:99 nCells:0  voxels:(39 39 39) bb:(-4.083003031 -4.375003031 -4.375003031) (-2.332996969 -2.624996969 -2.624996969)
    zone:100 nCells:0  voxels:(39 39 39) bb:(-4.083003031 -4.375003031 -4.375003031) (-2.332996969 -2.624996969 -2.624996969)
    zone:101 nCells:0  voxels:(39 39 39) bb:(-4.083003031 -4.375003031 -4.375003031) (-2.332996969 -2.624996969 -2.624996969)
    zone:102 nCells:0  voxels:(39 39 39) bb:(-4.083003031 -4.375003031 -4.375003031) (-2.332996969 -2.624996969 -2.624996969)
    zone:103 nCells:0  voxels:(39 39 39) bb:(-4.083003031 -4.375003031 -4.375003031) (-2.332996969 -2.624996969 -2.624996969)
    zone:104 nCells:0  voxels:(39 39 39) bb:(-4.083003031 -4.375003031 -4.375003031) (-2.332996969 -2.624996969 -2.624996969)
    zone:105 nCells:0  voxels:(39 39 39) bb:(-4.083003031 -4.375003031 -4.375003031) (-2.332996969 -2.624996969 -2.624996969)
    zone:106 nCells:0  voxels:(39 39 39) bb:(-4.083003031 -4.375003031 -4.375003031) (-2.332996969 -2.624996969 -2.624996969)
    zone:107 nCells:0  voxels:(39 39 39) bb:(-4.083003031 -4.375003031 -4.375003031) (-2.332996969 -2.624996969 -2.624996969)
    zone:108 nCells:0  voxels:(39 39 39) bb:(-4.083003031 -4.375003031 -4.375003031) (-2.332996969 -2.624996969 -2.624996969)
    zone:109 nCells:0  voxels:(39 39 39) bb:(-4.083003031 -4.375003031 -4.375003031) (-2.332996969 -2.624996969 -2.624996969)
    zone:110 nCells:0  voxels:(39 39 39) bb:(-4.083003031 -4.375003031 -4.375003031) (-2.332996969 -2.624996969 -2.624996969)
    zone:111 nCells:0  voxels:(39 39 39) bb:(-4.083003031 -4.375003031 -4.375003031) (-2.332996969 -2.624996969 -2.624996969)
    zone:112 nCells:0  voxels:(39 39 39) bb:(-4.083003031 -4.375003031 -4.375003031) (-2.332996969 -2.624996969 -2.624996969)
    zone:113 nCells:0  voxels:(39 39 39) bb:(-4.083003031 -4.375003031 -4.375003031) (-2.332996969 -2.624996969 -2.624996969)
    zone:114 nCells:0  voxels:(39 39 39) bb:(-4.083003031 -4.375003031 -4.375003031) (-2.332996969 -2.624996969 -2.624996969)
    zone:115 nCells:0  voxels:(39 39 39) bb:(-4.083003031 -4.375003031 -4.375003031) (-2.332996969 -2.624996969 -2.624996969)
    zone:116 nCells:0  voxels:(39 39 39) bb:(-4.083003031 -4.375003031 -4.375003031) (-2.332996969 -2.624996969 -2.624996969)
    zone:117 nCells:0  voxels:(39 39 39) bb:(-4.083003031 -4.375003031 -4.375003031) (-2.332996969 -2.624996969 -2.624996969)
    zone:118 nCells:0  voxels:(39 39 39) bb:(-4.083003031 -4.375003031 -4.375003031) (-2.332996969 -2.624996969 -2.624996969)
    zone:119 nCells:0  voxels:(39 39 39) bb:(-4.083003031 -4.375003031 -4.375003031) (-2.332996969 -2.624996969 -2.624996969)
    zone:120 nCells:0  voxels:(39 39 39) bb:(-4.083003031 -4.375003031 -4.375003031) (-2.332996969 -2.624996969 -2.624996969)
    zone:121 nCells:0  voxels:(39 39 39) bb:(-4.083003031 -4.375003031 -4.375003031) (-2.332996969 -2.624996969 -2.624996969)
    zone:122 nCells:0  voxels:(39 39 39) bb:(-4.083003031 -4.375003031 -4.375003031) (-2.332996969 -2.624996969 -2.624996969)
    zone:123 nCells:10240  voxels:(39 39 39) bb:(-0.08201608717 -0.04615573852 -0.2000002746) (0.08201608717 0.04615573852 2.746410047e-07)
Overset analysis : nCells : 63355
    calculated   : 56555
    interpolated : 6800 (from local:6800  mixed local/remote:0  remote:0)
    hole         : 0

Mesh Courant Number mean: 0.00392889653 max: 25.47462141
PIMPLE: iteration 1
DILUPBiCGStab:  Solving for Ux, Initial residual = 0.002204950001, Final residual = 7.369078733e-09, No Iterations 9
DILUPBiCGStab:  Solving for Uy, Initial residual = 0.01111982088, Final residual = 3.708853866e-09, No Iterations 8
DILUPBiCGStab:  Solving for Uz, Initial residual = 0.003395340242, Final residual = 5.148632868e-09, No Iterations 9
DILUPBiCGStab:  Solving for p, Initial residual = 0.4243049075, Final residual = 0.001325284435, No Iterations 2
DILUPBiCGStab:  Solving for p, Initial residual = 0.00693771501, Final residual = 2.547245267e-05, No Iterations 3
DILUPBiCGStab:  Solving for p, Initial residual = 2.229454537e-05, Final residual = 1.900851364e-07, No Iterations 2
time step continuity errors : sum local = 1.571440088e-13, global = -9.278129402e-14, cumulative = 4.867847779e-12
DILUPBiCGStab:  Solving for p, Initial residual = 0.1244553514, Final residual = 0.0007781174623, No Iterations 3
DILUPBiCGStab:  Solving for p, Initial residual = 0.001610684588, Final residual = 1.205774313e-05, No Iterations 3
DILUPBiCGStab:  Solving for p, Initial residual = 1.244677373e-05, Final residual = 1.926568774e-07, No Iterations 2
time step continuity errors : sum local = 6.77092116e-14, global = 5.208366162e-14, cumulative = 4.919931441e-12
DILUPBiCGStab:  Solving for p, Initial residual = 0.117760331, Final residual = 0.001175343085, No Iterations 2
DILUPBiCGStab:  Solving for p, Initial residual = 0.001462581751, Final residual = 1.110131547e-05, No Iterations 3
DILUPBiCGStab:  Solving for p, Initial residual = 1.079037469e-05, Final residual = 2.186549689e-07, No Iterations 2
time step continuity errors : sum local = 5.824747296e-14, global = 5.378080925e-14, cumulative = 4.97371225e-12
DILUPBiCGStab:  Solving for omega, Initial residual = 0.02299052173, Final residual = 2.932614896e-09, No Iterations 5
DILUPBiCGStab:  Solving for k, Initial residual = 0.02528956869, Final residual = 5.017231583e-09, No Iterations 5
ExecutionTime = 65.48 s  ClockTime = 87 s

surfaceFieldValue inMassFlow write:
    total faces   = 1225
    total area    = 3.0625

    sum(inlet) of phi = -3.0625

surfaceFieldValue outMassFlow write:
    total faces   = 1225
    total area    = 3.0625

    sum(outlet) of phi = 3.0625

forces forces_object write:
    Sum of forces
        Total    : (0 0 0)
        Pressure : (0 0 0)
        Viscous  : (0 0 0)
    Sum of moments
        Total    : (0 0 0)
        Pressure : (0 0 0)
        Viscous  : (0 0 0)
    writing force and moment files.

forceCoeffs forceCoeffs_object write:
    Coefficient	Total	Pressure	Viscous	Internal
    Cd:	0	0	0	0
    Cd(f):	0	0	0	0
    Cd(r):	0	0	0	0
    Cl:	0	0	0	0
    Cl(f):	0	0	0	0
    Cl(r):	0	0	0	0
    CmPitch:	0	0	0	0
    CmRoll:	0	0	0	0
    CmYaw:	0	0	0	0
    Cs:	0	0	0	0
    Cs(f):	0	0	0	0
    Cs(r):	0	0	0	0

    writing force and moment coefficient files.

--> FOAM Warning : 
    From virtual bool Foam::functionObjects::fieldSelection::checkSelection()
    in file functionObjects/fieldSelections/fieldSelection/fieldSelection.C at line 166
    Field epsilon not found
fieldMinMax minmaxdomain write:
    min(nut) = 0.0006321337743 in cell 41544 at location (0.192 0.85 0.85)
    max(nut) = 0.0006666666667 in cell 0 at location (-0.583 -0.85 -0.85)
    min(U) = (0.9996007594 -0.001217747151 -0.0003284716335) in cell 62629 at location (0.02626475838 -0.02286181242 -0.0075)
    max(U) = (1.000799958 0.0007932581942 0.002684613017) in cell 63025 at location (0.06385246322 -0.03654261815 -0.0225)
    min(k) = 0.004316039128 in cell 42866 at location (1.142 0.8 0.8)
    max(k) = 0.01 in cell 0 at location (-0.583 -0.85 -0.85)
    min(p) = -0.0004585802266 in cell 63045 at location (0.05659747677 -0.01261846359 -0.0275)
    max(p) = 0.003599861294 in cell 63048 at location (0.05146717462 -0.0267138529 -0.0125)
    min(omega) = 6.692540716 in cell 42871 at location (1.142 0.85 0.8)
    max(omega) = 15 in cell 0 at location (-0.583 -0.85 -0.85)

yPlus yplus write:
    writing field yPlus
End

