/*---------------------------------------------------------------------------*\
| =========                 |                                                 |
| \\      /  F ield         | OpenFOAM: The Open Source CFD Toolbox           |
|  \\    /   O peration     | Version:  2212                                  |
|   \\  /    A nd           | Website:  www.openfoam.com                      |
|    \\/     M anipulation  |                                                 |
\*---------------------------------------------------------------------------*/
Build  : _fd8c5e00-20221221 OPENFOAM=2212 version=2212
Arch   : "LSB;label=32;scalar=64"
Exec   : overPimpleDyMFoam
Date   : Apr 09 2023
Time   : 05:32:23
Host   : RazorPC
PID    : 1043
I/O    : uncollated
Case   : /mnt/d/Main/HMC/Senior/S2/Thesis/model/all
nProcs : 1
trapFpe: Floating point exception trapping enabled (FOAM_SIGFPE).
fileModificationChecking : Monitoring run-time modified files using timeStampMaster (fileModificationSkew 5, maxFileModificationPolls 20)
allowSystemOperations : Allowing user-supplied system call operations

// * * * * * * * * * * * * * * * * * * * * * * * * * * * * * * * * * * * * * //
Create time

Create mesh for time = 0

Selecting dynamicFvMesh dynamicOversetFvMesh
Selecting motion solver: multiSolidBodyMotionSolver
Applying motion to entire mesh
Selecting solid-body motion function tabulated6DoFMotion
Applying solid body motion tabulated6DoFMotion to 2547890 points of cellZone leftWing
Selecting solid-body motion function tabulated6DoFMotion
Applying solid body motion tabulated6DoFMotion to 2547890 points of cellZone rightWing

PIMPLE: Operating solver in PISO mode

Reading field p

Reading field U

Reading/calculating face flux field phi

Creating cellMask field to block out hole cells

Creating interpolatedCells field 

Selecting incompressible transport model Newtonian
Selecting turbulence model type RAS
Selecting RAS turbulence model kOmegaSST
Selecting patchDistMethod meshWave
RAS
{
    RASModel        kOmegaSST;
    turbulence      on;
    printCoeffs     on;
    alphaK1         0.85;
    alphaK2         1;
    alphaOmega1     0.5;
    alphaOmega2     0.856;
    gamma1          0.5555555556;
    gamma2          0.44;
    beta1           0.075;
    beta2           0.0828;
    betaStar        0.09;
    a1              0.31;
    b1              1;
    c1              10;
    F3              false;
    decayControl    false;
    kInf            0;
    omegaInf        0;
}

Reading/calculating face velocity Uf

No MRF models present

No finite volume options present
Courant Number mean: 10.97675641 max: 22432.00669

Starting time loop

surfaceFieldValue inMassFlow:
    operation     = sum


surfaceFieldValue outMassFlow:
    operation     = sum


forces forces_object:
    rho: rhoInf
    Freestream density (rhoInf) set to 1
    Not including porosity effects

forceCoeffs forceCoeffs_object:
    rho: rhoInf
    Freestream density (rhoInf) set to 1
    Not including porosity effects
    magUInf: 1
    lRef   : 1
    Aref   : 1
    rhoInf : 1
    Selecting all coefficients
    - Drag force: Cd
    - Drag force front: Cd(f)
    - Drag force rear: Cd(r)
    - Lift force: Cl
    - Lift force front: Cl(f)
    - Lift force rear: Cl(r)
    - Pitch moment: CmPitch
    - Roll moment: CmRoll
    - Yaw moment: CmYaw
    - Side force: Cs
    - Side force front: Cs(f)
    - Side force rear: Cs(r)


Courant Number mean: 10.97675641 max: 22432.00669
Time = 0.05

inverseDistance : detected 4 mesh regions
    zone:0 nCells:42875  voxels:(194 194 194) bb:(-0.5830030311 -0.8750030311 -0.8750030311) (1.167003031 0.8750030311 0.8750030311)
    zone:1 nCells:2449698  voxels:(194 194 194) bb:(-0.1697689027 -0.1226862256 -0.07764724463) (0.1722258974 0.2724197283 0.3242090813)
    zone:2 nCells:2449698  voxels:(194 194 194) bb:(-0.1697689027 -0.1226862256 -0.3242090813) (0.1722258974 0.2724197283 0.07764724463)
    zone:3 nCells:2444672  voxels:(194 194 194) bb:(-0.2000018853 -0.1000004899 -0.1000012521) (0.2000021998 0.1000004899 0.1000013203)
Overset analysis : nCells : 7386943
    calculated   : 7170127
    interpolated : 33327 (from local:33327  mixed local/remote:0  remote:0)
    hole         : 150921

Mesh Courant Number mean: 0.129520132 max: 8496.311546
PIMPLE: iteration 1
DILUPBiCGStab:  Solving for Ux, Initial residual = 0.9991305433, Final residual = 4.066959967e-09, No Iterations 186
DILUPBiCGStab:  Solving for Uy, Initial residual = 1, Final residual = 9.019453286e-09, No Iterations 778
DILUPBiCGStab:  Solving for Uz, Initial residual = 1, Final residual = 6.310214502e-09, No Iterations 113
DILUPBiCGStab:  Solving for p, Initial residual = 1, Final residual = 0.004262549628, No Iterations 65
DILUPBiCGStab:  Solving for p, Initial residual = 0.0005041700793, Final residual = 4.052352899e-06, No Iterations 15
DILUPBiCGStab:  Solving for p, Initial residual = 3.319729679e-05, Final residual = 8.586121114e-07, No Iterations 14
time step continuity errors : sum local = 2.76048791e-06, global = -8.202615551e-07, cumulative = -8.202615551e-07
DILUPBiCGStab:  Solving for p, Initial residual = 0.002042826969, Final residual = 1.513762854e-05, No Iterations 57
DILUPBiCGStab:  Solving for p, Initial residual = 0.00597316338, Final residual = 5.849811492e-05, No Iterations 7
DILUPBiCGStab:  Solving for p, Initial residual = 0.0003353615774, Final residual = 1.468371787e-06, No Iterations 35
time step continuity errors : sum local = 3.69522589e-07, global = 1.6435463e-07, cumulative = -6.559069251e-07
DILUPBiCGStab:  Solving for p, Initial residual = 0.01566497517, Final residual = 9.881276669e-05, No Iterations 34
DILUPBiCGStab:  Solving for p, Initial residual = 0.002935158941, Final residual = 2.85998336e-05, No Iterations 54
DILUPBiCGStab:  Solving for p, Initial residual = 0.0008159265017, Final residual = 7.223147709e-07, No Iterations 50
time step continuity errors : sum local = 2.811834651e-08, global = -2.201478193e-09, cumulative = -6.581084033e-07
DILUPBiCGStab:  Solving for omega, Initial residual = 0.004637755385, Final residual = 7.451871014e-09, No Iterations 113
DILUPBiCGStab:  Solving for k, Initial residual = 0.9999997048, Final residual = 8.072163799e-09, No Iterations 34
ExecutionTime = 1571.23 s  ClockTime = 1667 s

surfaceFieldValue inMassFlow write:
    total faces   = 1225
    total area    = 3.0625

    sum(inlet) of phi = -15.3125

surfaceFieldValue outMassFlow write:
    total faces   = 1225
    total area    = 3.0625

    sum(outlet) of phi = 15.34418492

forces forces_object write:
    Sum of forces
        Total    : (-0.4269050012 -0.02286093401 -0.002099822405)
        Pressure : (-0.4293264004 0.04769516037 -0.002082494544)
        Viscous  : (0.002421399274 -0.07055609438 -1.732786118e-05)
    Sum of moments
        Total    : (-7.517015661e-05 6.06815445e-05 0.01726494118)
        Pressure : (-7.550009672e-05 6.068879095e-05 0.01738853844)
        Viscous  : (3.299401058e-07 -7.246450875e-09 -0.0001235972563)
    writing force and moment files.

forceCoeffs forceCoeffs_object write:
    Coefficient	Total	Pressure	Viscous	Internal
    Cd:	-0.8538100023	-0.8586528009	0.004842798549	0
    Cd(f):	-0.4270553415	-0.4294774006	0.002422059155	0
    Cd(r):	-0.4267546609	-0.4291754002	0.002420739394	0
    Cl:	-0.04572186802	0.09539032074	-0.1411121888	0
    Cl(f):	-0.05739081637	0.0129180835	-0.07030889987	0
    Cl(r):	0.01166894835	0.08247223724	-0.07080328889	0
    CmPitch:	-0.03452988236	-0.03477707687	0.0002471945127	0
    CmRoll:	-0.0001503403132	-0.0001510001934	6.598802116e-07	0
    CmYaw:	0.000121363089	0.0001213775819	-1.449290175e-08	0
    Cs:	0.00419964481	0.004164989088	3.465572236e-05	0
    Cs(f):	0.002221185494	0.002203872126	1.731336828e-05	0
    Cs(r):	0.001978459316	0.001961116962	1.734235408e-05	0

    writing force and moment coefficient files.

--> FOAM Warning : 
    From virtual bool Foam::functionObjects::fieldSelection::checkSelection()
    in file functionObjects/fieldSelections/fieldSelection/fieldSelection.C at line 166
    Field epsilon not found
fieldMinMax minmaxdomain write:
    min(nut) = 0 in cell 1598234 at location (-0.04078077842 0.08352718475 0.1164460276)
    max(nut) = 0.0006869955973 in cell 4967136 at location (-0.0984505722 -0.05470993253 0.05471044194)
    min(U) = (-1.002280116 -3.337198063 -7.213858263) in cell 2531290 at location (-0.09085377416 -0.01302446703 -0.02850995291)
    max(U) = (34.36453791 13.24124865 20.16364237) in cell 1555629 at location (-0.03582337194 0.01538410555 0.02403251017)
    min(k) = 2.109136128e-08 in cell 3986064 at location (0.0224677717 0.09371805146 -0.1622143146)
    max(k) = 0.1604945953 in cell 95324 at location (-0.08977492602 0.01901158414 0.01542339563)
    min(p) = -932.6214358 in cell 1661399 at location (-0.0404304185 0.08390465913 0.118440996)
    max(p) = 447.7916102 in cell 4595699 at location (0.04325877467 0.06341727428 -0.1289139792)
    min(omega) = 14.12401891 in cell 35139 at location (1.142 -0.85 0.85)
    max(omega) = 1047717923 in cell 2005729 at location (0.04715253427 0.04130076827 0.1004706045)

yPlus yplus write:
    writing field yPlus
    patch leftWing y+ : min = 0.008024671569, max = 3.539528596, average = 0.09299099318
    patch rightWing y+ : min = 0.008024298877, max = 3.708610881, average = 0.09329653412
    patch body y+ : min = 0, max = 0.6262062614, average = 0.08460536567
Courant Number mean: 11.76658418 max: 26225.04118
Time = 0.1

inverseDistance : detected 4 mesh regions
    zone:0 nCells:42875  voxels:(194 194 194) bb:(-0.5830030311 -0.8750030311 -0.8750030311) (1.167003031 0.8750030311 0.8750030311)
    zone:1 nCells:2449698  voxels:(194 194 194) bb:(-0.1545462943 -0.08525902162 -0.07600610873) (0.1546254729 0.2828990833 0.2667451082)
    zone:2 nCells:2449698  voxels:(194 194 194) bb:(-0.1545462943 -0.08525902162 -0.2667451082) (0.1546254729 0.2828990833 0.07600610873)
    zone:3 nCells:2444672  voxels:(194 194 194) bb:(-0.2000018853 -0.1000004899 -0.1000012521) (0.2000021998 0.1000004899 0.1000013203)
Overset analysis : nCells : 7386943
    calculated   : 7057340
    interpolated : 85772 (from local:85772  mixed local/remote:0  remote:0)
    hole         : 160211

Mesh Courant Number mean: 0.07300237758 max: 5641.847543
PIMPLE: iteration 1
DILUPBiCGStab:  Solving for Ux, Initial residual = 0.02284743898, Final residual = 2.720012042e-09, No Iterations 183
DILUPBiCGStab:  Solving for Uy, Initial residual = 0.206687469, Final residual = 6.936293233e-09, No Iterations 150
DILUPBiCGStab:  Solving for Uz, Initial residual = 0.4222910513, Final residual = 9.768432104e-09, No Iterations 146
DILUPBiCGStab:  Solving for p, Initial residual = 0.2601047445, Final residual = 0.002246810391, No Iterations 55
DILUPBiCGStab:  Solving for p, Initial residual = 0.0008283808481, Final residual = 4.14340169e-06, No Iterations 43
DILUPBiCGStab:  Solving for p, Initial residual = 4.738077317e-05, Final residual = 9.085127309e-07, No Iterations 14
time step continuity errors : sum local = 2.822626803e-06, global = 9.675195266e-07, cumulative = 3.094111233e-07
DILUPBiCGStab:  Solving for p, Initial residual = 0.004413417804, Final residual = 3.369943563e-05, No Iterations 59
DILUPBiCGStab:  Solving for p, Initial residual = 0.02596340933, Final residual = 0.0002444033143, No Iterations 23
DILUPBiCGStab:  Solving for p, Initial residual = 0.001479885575, Final residual = 1.104274609e-05, No Iterations 51
time step continuity errors : sum local = 1.125564509e-06, global = 9.286604588e-08, cumulative = 4.022771692e-07
DILUPBiCGStab:  Solving for p, Initial residual = 0.05666207387, Final residual = 0.0005109737343, No Iterations 35
DILUPBiCGStab:  Solving for p, Initial residual = 0.004605766566, Final residual = 4.245739956e-05, No Iterations 34
DILUPBiCGStab:  Solving for p, Initial residual = 0.0003717700073, Final residual = 2.66473614e-07, No Iterations 75
time step continuity errors : sum local = 2.55322382e-08, global = -2.308174131e-08, cumulative = 3.791954279e-07
DILUPBiCGStab:  Solving for omega, Initial residual = 0.6528697059, Final residual = 6.882210512e-09, No Iterations 9
bounding omega, min: -32377721.09 max: 1047717922 average: 1689132.496
DILUPBiCGStab:  Solving for k, Initial residual = 0.060794021, Final residual = 9.805979455e-09, No Iterations 134
bounding k, min: -0.006212477647 max: 0.3266980695 average: 0.006500239177
ExecutionTime = 3488.46 s  ClockTime = 3713 s

surfaceFieldValue inMassFlow write:
    total faces   = 1225
    total area    = 3.0625

    sum(inlet) of phi = -15.3125

surfaceFieldValue outMassFlow write:
    total faces   = 1225
    total area    = 3.0625

    sum(outlet) of phi = 15.29221837

forces forces_object write:
    Sum of forces
        Total    : (0.1632360329 -0.2038158709 -0.06721391955)
        Pressure : (0.06981174649 -0.1315415141 -0.06305035423)
        Viscous  : (0.09342428646 -0.0722743568 -0.00416356532)
    Sum of moments
        Total    : (-0.001759950435 4.439544181e-05 -0.00606811128)
        Pressure : (-0.001728239543 4.59645204e-05 -0.0026243678)
        Viscous  : (-3.171089188e-05 -1.569078594e-06 -0.00344374348)
    writing force and moment files.

forceCoeffs forceCoeffs_object write:
    Coefficient	Total	Pressure	Viscous	Internal
    Cd:	0.3264720659	0.139623493	0.1868485729	0
    Cd(f):	0.1597161321	0.0663552674	0.09336086468	0
    Cd(r):	0.1667559338	0.07326822557	0.09348770825	0
    Cl:	-0.4076317418	-0.2630830282	-0.1445487136	0
    Cl(f):	-0.1916796483	-0.1262927785	-0.06538686984	0
    Cl(r):	-0.2159520935	-0.1367902497	-0.07916184376	0
    CmPitch:	0.01213622256	0.0052487356	0.00688748696	0
    CmRoll:	-0.003519900869	-0.003456479085	-6.342178376e-05	0
    CmYaw:	8.879088361e-05	9.19290408e-05	-3.138157189e-06	0
    Cs:	0.1344278391	0.1261007085	0.00832713064	0
    Cs(f):	0.06730271043	0.06314228327	0.004160427163	0
    Cs(r):	0.06712512867	0.06295842519	0.004166703477	0

    writing force and moment coefficient files.

--> FOAM Warning : 
    From virtual bool Foam::functionObjects::fieldSelection::checkSelection()
    in file functionObjects/fieldSelections/fieldSelection/fieldSelection.C at line 166
    Field epsilon not found
fieldMinMax minmaxdomain write:
    min(nut) = 0 in cell 1598234 at location (-0.04335849376 0.09923781615 0.09365779546)
    max(nut) = 3.372000445e+13 in cell 802074 at location (-0.008172596646 -0.01075799032 0.04395194472)
    min(U) = (-6.794104711 -3.776776694 -5.889561273) in cell 1619886 at location (-0.03790207736 0.003675082253 0.03003083262)
    max(U) = (6.422855335 4.186496416 5.181795552) in cell 2576560 at location (-0.07710497562 -0.01830376074 -0.03189144033)
    min(k) = 1e-15 in cell 329762 at location (0.09576435309 0.001321016827 0.02458877437)
    max(k) = 0.3266980695 in cell 4339129 at location (0.03625644655 -0.0008330013875 -0.03537442964)
    min(p) = -706.032889 in cell 1619903 at location (-0.03790466566 0.002649753558 0.03225555221)
    max(p) = 279.2193173 in cell 4588667 at location (0.03825087261 0.002444352157 -0.03377981792)
    min(omega) = 1e-15 in cell 15276 at location (-0.108 0.05 0)
    max(omega) = 1047717922 in cell 2005729 at location (0.04795609539 0.06477187262 0.07802781093)

yPlus yplus write:
    writing field yPlus
    patch leftWing y+ : min = 0.007610857948, max = 2.804935067, average = 0.07283307113
    patch rightWing y+ : min = 0.007609303165, max = 2.906382102, average = 0.0770714003
    patch body y+ : min = 0, max = 0.7619184864, average = 0.04929941124
Courant Number mean: 11.69882735 max: 27829.20342
Time = 0.15

inverseDistance : detected 4 mesh regions
    zone:0 nCells:42875  voxels:(194 194 194) bb:(-0.5830030311 -0.8750030311 -0.8750030311) (1.167003031 0.8750030311 0.8750030311)
    zone:1 nCells:2449698  voxels:(194 194 194) bb:(-0.1674843714 -0.1031690243 -0.08791729405) (0.1692037877 0.2906155941 0.2943909788)
    zone:2 nCells:2449698  voxels:(194 194 194) bb:(-0.1674843714 -0.1031690243 -0.2943909788) (0.1692037877 0.2906155941 0.08791729405)
    zone:3 nCells:2444672  voxels:(194 194 194) bb:(-0.2000018853 -0.1000004899 -0.1000012521) (0.2000021998 0.1000004899 0.1000013203)
Overset analysis : nCells : 7386943
    calculated   : 7091235
    interpolated : 80788 (from local:80788  mixed local/remote:0  remote:0)
    hole         : 128401

Mesh Courant Number mean: 0.03251721789 max: 2175.309652
PIMPLE: iteration 1
DILUPBiCGStab:  Solving for Ux, Initial residual = 0.4682607747, Final residual = 2.805854922e-09, No Iterations 233
DILUPBiCGStab:  Solving for Uy, Initial residual = 0.8290176281, Final residual = 5.650376719e-09, No Iterations 212
DILUPBiCGStab:  Solving for Uz, Initial residual = 0.7280369843, Final residual = 8.075871642e-09, No Iterations 161
DILUPBiCGStab:  Solving for p, Initial residual = 0.9999936929, Final residual = 0.005850728071, No Iterations 60
DILUPBiCGStab:  Solving for p, Initial residual = 0.004111602589, Final residual = 3.962604669e-05, No Iterations 6
DILUPBiCGStab:  Solving for p, Initial residual = 0.0002310353031, Final residual = 2.26325568e-06, No Iterations 44
time step continuity errors : sum local = 23.39545825, global = -13.74924762, cumulative = -13.74924724
DILUPBiCGStab:  Solving for p, Initial residual = 0.01295433591, Final residual = 9.946216073e-05, No Iterations 42
DILUPBiCGStab:  Solving for p, Initial residual = 8.141243768e-06, Final residual = 6.80969262e-07, No Iterations 2
DILUPBiCGStab:  Solving for p, Initial residual = 9.703818269e-07, Final residual = 4.984569312e-07, No Iterations 2
time step continuity errors : sum local = 1173.33605, global = 809.1509783, cumulative = 795.4017311
DILUPBiCGStab:  Solving for p, Initial residual = 2.460982126e-05, Final residual = 9.965763941e-07, No Iterations 9
DILUPBiCGStab:  Solving for p, Initial residual = 2.403083411e-07, Final residual = 5.645366527e-08, No Iterations 2
DILUPBiCGStab:  Solving for p, Initial residual = 6.218969719e-08, Final residual = 6.325711061e-08, No Iterations 2
time step continuity errors : sum local = 2216.786111, global = 1516.971821, cumulative = 2312.373552
DILUPBiCGStab:  Solving for omega, Initial residual = 0.01209409697, Final residual = 2.553378564e-09, No Iterations 152
bounding omega, min: -54972498.6 max: 1047717922 average: 1948487.338
DILUPBiCGStab:  Solving for k, Initial residual = 0.4786964581, Final residual = 2.403065644e-09, No Iterations 171
bounding k, min: -0.05790568098 max: 0.5083851365 average: 0.002143247893
ExecutionTime = 5293.88 s  ClockTime = 5797 s

surfaceFieldValue inMassFlow write:
    total faces   = 1225
    total area    = 3.0625

    sum(inlet) of phi = -15.3125

surfaceFieldValue outMassFlow write:
    total faces   = 1225
    total area    = 3.0625

    sum(outlet) of phi = 1342441.067

forces forces_object write:
    Sum of forces
        Total    : (-2203044.825 1824611.941 -2306316.926)
        Pressure : (-2142636.689 1797322.24 -2265498.9)
        Viscous  : (-60408.13571 27289.70157 -40818.02603)
    Sum of moments
        Total    : (3077.781094 144785.7982 103747.1572)
        Pressure : (2927.89035 142188.4037 101668.4284)
        Viscous  : (149.8907435 2597.394502 2078.728855)
    writing force and moment files.

forceCoeffs forceCoeffs_object write:
    Coefficient	Total	Pressure	Viscous	Internal
    Cd:	-4406089.65	-4285273.379	-120816.2714	0
    Cd(f):	-2196889.263	-2136780.909	-60108.35423	0
    Cd(r):	-2209200.387	-2148492.47	-60707.9172	0
    Cl:	3649223.882	3594644.479	54579.40314	0
    Cl(f):	1617117.627	1593985.383	23132.24386	0
    Cl(r):	2032106.256	2000659.096	31447.15928	0
    CmPitch:	-207494.3145	-203336.8568	-4157.45771	0
    CmRoll:	6155.562188	5855.780701	299.781487	0
    CmYaw:	289571.5965	284376.8075	5194.789003	0
    Cs:	4612633.851	4530997.799	81636.05207	0
    Cs(f):	2595888.522	2549875.707	46012.81504	0
    Cs(r):	2016745.329	1981122.092	35623.23703	0

    writing force and moment coefficient files.

--> FOAM Warning : 
    From virtual bool Foam::functionObjects::fieldSelection::checkSelection()
    in file functionObjects/fieldSelections/fieldSelection/fieldSelection.C at line 166
    Field epsilon not found
fieldMinMax minmaxdomain write:
    min(nut) = 0 in cell 1598234 at location (-0.0414131814 0.08782213031 0.1112790605)
    max(nut) = 5.143224515e+13 in cell 5916140 at location (0.02226562211 -0.001171737813 -0.03943259442)
    min(U) = (-3585645680 -4465651518 -8054824963) in cell 5075231 at location (0.1187587511 -0.05626048741 0.0812639703)
    max(U) = (322419367.8 3620659500 1224715430) in cell 5260330 at location (0.1312586065 -0.01875225635 0.08126235712)
    min(k) = 1e-15 in cell 64434 at location (-0.103076139 0.1023046334 0.09286443364)
    max(k) = 0.5083851365 in cell 4339129 at location (0.0367880787 -0.0006084425732 -0.03502780041)
    min(p) = -1.476966914e+13 in cell 523936 at location (0.01061936177 -0.01989326042 0.04943221595)
    max(p) = 8.11729717e+18 in cell 5020094 at location (0.1187562852 -0.0812603197 0.08126037313)
    min(omega) = 1e-15 in cell 22530 at location (0.042 0.15 0.15)
    max(omega) = 1047717922 in cell 3896542 at location (-0.04564154817 0.05518381215 -0.09282795151)

yPlus yplus write:
    writing field yPlus
    patch leftWing y+ : min = 0.007266253142, max = 647.6158466, average = 24.31904503
    patch rightWing y+ : min = 0.007262860779, max = 1044.750734, average = 25.59650834
    patch body y+ : min = 0, max = 2205.790088, average = 47.13997367
Courant Number mean: 4108164.677 max: 2.017403878e+11
Time = 0.2

inverseDistance : detected 4 mesh regions
    zone:0 nCells:42875  voxels:(194 194 194) bb:(-0.5830030311 -0.8750030311 -0.8750030311) (1.167003031 0.8750030311 0.8750030311)
    zone:1 nCells:2449698  voxels:(194 194 194) bb:(-0.1749768081 -0.1574811036 -0.07441412233) (0.1816521438 0.267847849 0.348815274)
    zone:2 nCells:2449698  voxels:(194 194 194) bb:(-0.1749768081 -0.1574811036 -0.348815274) (0.1816521438 0.267847849 0.07441412233)
    zone:3 nCells:2444672  voxels:(194 194 194) bb:(-0.2000018853 -0.1000004899 -0.1000012521) (0.2000021998 0.1000004899 0.1000013203)
Overset analysis : nCells : 7386943
    calculated   : 7144858
    interpolated : 99669 (from local:99669  mixed local/remote:0  remote:0)
    hole         : 93081

Mesh Courant Number mean: 0.09481830201 max: 5703.981768
PIMPLE: iteration 1
DILUPBiCGStab:  Solving for Ux, Initial residual = 0.09188834222, Final residual = 5.021013307e-09, No Iterations 891
DILUPBiCGStab:  Solving for Uy, Initial residual = 0.1280845677, Final residual = 9.703216378e-09, No Iterations 823
