/*---------------------------------------------------------------------------*\
| =========                 |                                                 |
| \\      /  F ield         | OpenFOAM: The Open Source CFD Toolbox           |
|  \\    /   O peration     | Version:  2212                                  |
|   \\  /    A nd           | Website:  www.openfoam.com                      |
|    \\/     M anipulation  |                                                 |
\*---------------------------------------------------------------------------*/
Build  : _fd8c5e00-20221221 OPENFOAM=2212 version=2212
Arch   : "LSB;label=32;scalar=64"
Exec   : overPimpleDyMFoam
Date   : Apr 02 2023
Time   : 15:39:52
Host   : RazorPC
PID    : 11453
I/O    : uncollated
Case   : /mnt/d/Main/HMC/Senior/S2/Thesis/model/all
nProcs : 1
trapFpe: Floating point exception trapping enabled (FOAM_SIGFPE).
fileModificationChecking : Monitoring run-time modified files using timeStampMaster (fileModificationSkew 5, maxFileModificationPolls 20)
allowSystemOperations : Allowing user-supplied system call operations

// * * * * * * * * * * * * * * * * * * * * * * * * * * * * * * * * * * * * * //
Create time

Create mesh for time = 0

Selecting dynamicFvMesh dynamicOversetFvMesh
Selecting motion solver: multiSolidBodyMotionSolver
Applying motion to entire mesh
Selecting solid-body motion function tabulated6DoFMotion
Applying solid body motion tabulated6DoFMotion to 52521 points of cellZone leftWing
Selecting solid-body motion function tabulated6DoFMotion
Applying solid body motion tabulated6DoFMotion to 52521 points of cellZone rightWing

PIMPLE: Operating solver in PISO mode

Reading field p

Reading field U

Reading/calculating face flux field phi

Creating cellMask field to block out hole cells

Creating interpolatedCells field 

Selecting incompressible transport model Newtonian
Selecting turbulence model type RAS
Selecting RAS turbulence model kOmegaSST
Selecting patchDistMethod meshWave
RAS
{
    RASModel        kOmegaSST;
    turbulence      on;
    printCoeffs     on;
    alphaK1         0.85;
    alphaK2         1;
    alphaOmega1     0.5;
    alphaOmega2     0.856;
    gamma1          0.5555555556;
    gamma2          0.44;
    beta1           0.075;
    beta2           0.0828;
    betaStar        0.09;
    a1              0.31;
    b1              1;
    c1              10;
    F3              false;
    decayControl    false;
    kInf            0;
    omegaInf        0;
}

Reading/calculating face velocity Uf

No MRF models present

No finite volume options present
Courant Number mean: 2.091695863 max: 20

Starting time loop

surfaceFieldValue inMassFlow:
    operation     = sum


surfaceFieldValue outMassFlow:
    operation     = sum


forces forces_object:
--> FOAM Warning : 
    From Foam::labelHashSet Foam::polyBoundaryMesh::patchSet(const Foam::UList<Foam::wordRe>&, bool, bool) const
    in file meshes/polyMesh/polyBoundaryMesh/polyBoundaryMesh.C at line 910
    Cannot find any patch or group names matching leftWing
--> FOAM Warning : 
    From Foam::labelHashSet Foam::polyBoundaryMesh::patchSet(const Foam::UList<Foam::wordRe>&, bool, bool) const
    in file meshes/polyMesh/polyBoundaryMesh/polyBoundaryMesh.C at line 910
    Cannot find any patch or group names matching rightWing
--> FOAM Warning : 
    From Foam::labelHashSet Foam::polyBoundaryMesh::patchSet(const Foam::UList<Foam::wordRe>&, bool, bool) const
    in file meshes/polyMesh/polyBoundaryMesh/polyBoundaryMesh.C at line 910
    Cannot find any patch or group names matching body
    rho: rhoInf
    Freestream density (rhoInf) set to 1
    Not including porosity effects

forceCoeffs forceCoeffs_object:
--> FOAM Warning : 
    From Foam::labelHashSet Foam::polyBoundaryMesh::patchSet(const Foam::UList<Foam::wordRe>&, bool, bool) const
    in file meshes/polyMesh/polyBoundaryMesh/polyBoundaryMesh.C at line 910
    Cannot find any patch or group names matching leftWing
--> FOAM Warning : 
    From Foam::labelHashSet Foam::polyBoundaryMesh::patchSet(const Foam::UList<Foam::wordRe>&, bool, bool) const
    in file meshes/polyMesh/polyBoundaryMesh/polyBoundaryMesh.C at line 910
    Cannot find any patch or group names matching rightWing
--> FOAM Warning : 
    From Foam::labelHashSet Foam::polyBoundaryMesh::patchSet(const Foam::UList<Foam::wordRe>&, bool, bool) const
    in file meshes/polyMesh/polyBoundaryMesh/polyBoundaryMesh.C at line 910
    Cannot find any patch or group names matching body
    rho: rhoInf
    Freestream density (rhoInf) set to 1
    Not including porosity effects
    magUInf: 1
    lRef   : 1
    Aref   : 1
    rhoInf : 1
    Selecting all coefficients
    - Drag force: Cd
    - Drag force front: Cd(f)
    - Drag force rear: Cd(r)
    - Lift force: Cl
    - Lift force front: Cl(f)
    - Lift force rear: Cl(r)
    - Pitch moment: CmPitch
    - Roll moment: CmRoll
    - Yaw moment: CmYaw
    - Side force: Cs
    - Side force front: Cs(f)
    - Side force rear: Cs(r)


Courant Number mean: 2.091695863 max: 20
Time = 0.05

inverseDistance : detected 124 mesh regions
    zone:0 nCells:42875  voxels:(64 64 64) bb:(-0.5830030311 -0.8750030311 -0.8750030311) (1.167003031 0.8750030311 0.8750030311)
    zone:1 nCells:48000  voxels:(64 64 64) bb:(-0.1096213536 -0.06670790618 -0.03318741779) (0.1096213536 0.2003344998 0.3017836454)
    zone:2 nCells:0  voxels:(64 64 64) bb:(-4.083003031 -4.375003031 -4.375003031) (-2.332996969 -2.624996969 -2.624996969)
    zone:3 nCells:0  voxels:(64 64 64) bb:(-4.083003031 -4.375003031 -4.375003031) (-2.332996969 -2.624996969 -2.624996969)
    zone:4 nCells:0  voxels:(64 64 64) bb:(-4.083003031 -4.375003031 -4.375003031) (-2.332996969 -2.624996969 -2.624996969)
    zone:5 nCells:0  voxels:(64 64 64) bb:(-4.083003031 -4.375003031 -4.375003031) (-2.332996969 -2.624996969 -2.624996969)
    zone:6 nCells:0  voxels:(64 64 64) bb:(-4.083003031 -4.375003031 -4.375003031) (-2.332996969 -2.624996969 -2.624996969)
    zone:7 nCells:0  voxels:(64 64 64) bb:(-4.083003031 -4.375003031 -4.375003031) (-2.332996969 -2.624996969 -2.624996969)
    zone:8 nCells:0  voxels:(64 64 64) bb:(-4.083003031 -4.375003031 -4.375003031) (-2.332996969 -2.624996969 -2.624996969)
    zone:9 nCells:0  voxels:(64 64 64) bb:(-4.083003031 -4.375003031 -4.375003031) (-2.332996969 -2.624996969 -2.624996969)
    zone:10 nCells:0  voxels:(64 64 64) bb:(-4.083003031 -4.375003031 -4.375003031) (-2.332996969 -2.624996969 -2.624996969)
    zone:11 nCells:0  voxels:(64 64 64) bb:(-4.083003031 -4.375003031 -4.375003031) (-2.332996969 -2.624996969 -2.624996969)
    zone:12 nCells:0  voxels:(64 64 64) bb:(-4.083003031 -4.375003031 -4.375003031) (-2.332996969 -2.624996969 -2.624996969)
    zone:13 nCells:0  voxels:(64 64 64) bb:(-4.083003031 -4.375003031 -4.375003031) (-2.332996969 -2.624996969 -2.624996969)
    zone:14 nCells:0  voxels:(64 64 64) bb:(-4.083003031 -4.375003031 -4.375003031) (-2.332996969 -2.624996969 -2.624996969)
    zone:15 nCells:0  voxels:(64 64 64) bb:(-4.083003031 -4.375003031 -4.375003031) (-2.332996969 -2.624996969 -2.624996969)
    zone:16 nCells:0  voxels:(64 64 64) bb:(-4.083003031 -4.375003031 -4.375003031) (-2.332996969 -2.624996969 -2.624996969)
    zone:17 nCells:0  voxels:(64 64 64) bb:(-4.083003031 -4.375003031 -4.375003031) (-2.332996969 -2.624996969 -2.624996969)
    zone:18 nCells:0  voxels:(64 64 64) bb:(-4.083003031 -4.375003031 -4.375003031) (-2.332996969 -2.624996969 -2.624996969)
    zone:19 nCells:0  voxels:(64 64 64) bb:(-4.083003031 -4.375003031 -4.375003031) (-2.332996969 -2.624996969 -2.624996969)
    zone:20 nCells:0  voxels:(64 64 64) bb:(-4.083003031 -4.375003031 -4.375003031) (-2.332996969 -2.624996969 -2.624996969)
    zone:21 nCells:0  voxels:(64 64 64) bb:(-4.083003031 -4.375003031 -4.375003031) (-2.332996969 -2.624996969 -2.624996969)
    zone:22 nCells:0  voxels:(64 64 64) bb:(-4.083003031 -4.375003031 -4.375003031) (-2.332996969 -2.624996969 -2.624996969)
    zone:23 nCells:0  voxels:(64 64 64) bb:(-4.083003031 -4.375003031 -4.375003031) (-2.332996969 -2.624996969 -2.624996969)
    zone:24 nCells:0  voxels:(64 64 64) bb:(-4.083003031 -4.375003031 -4.375003031) (-2.332996969 -2.624996969 -2.624996969)
    zone:25 nCells:0  voxels:(64 64 64) bb:(-4.083003031 -4.375003031 -4.375003031) (-2.332996969 -2.624996969 -2.624996969)
    zone:26 nCells:0  voxels:(64 64 64) bb:(-4.083003031 -4.375003031 -4.375003031) (-2.332996969 -2.624996969 -2.624996969)
    zone:27 nCells:0  voxels:(64 64 64) bb:(-4.083003031 -4.375003031 -4.375003031) (-2.332996969 -2.624996969 -2.624996969)
    zone:28 nCells:0  voxels:(64 64 64) bb:(-4.083003031 -4.375003031 -4.375003031) (-2.332996969 -2.624996969 -2.624996969)
    zone:29 nCells:0  voxels:(64 64 64) bb:(-4.083003031 -4.375003031 -4.375003031) (-2.332996969 -2.624996969 -2.624996969)
    zone:30 nCells:0  voxels:(64 64 64) bb:(-4.083003031 -4.375003031 -4.375003031) (-2.332996969 -2.624996969 -2.624996969)
    zone:31 nCells:0  voxels:(64 64 64) bb:(-4.083003031 -4.375003031 -4.375003031) (-2.332996969 -2.624996969 -2.624996969)
    zone:32 nCells:0  voxels:(64 64 64) bb:(-4.083003031 -4.375003031 -4.375003031) (-2.332996969 -2.624996969 -2.624996969)
    zone:33 nCells:0  voxels:(64 64 64) bb:(-4.083003031 -4.375003031 -4.375003031) (-2.332996969 -2.624996969 -2.624996969)
    zone:34 nCells:0  voxels:(64 64 64) bb:(-4.083003031 -4.375003031 -4.375003031) (-2.332996969 -2.624996969 -2.624996969)
    zone:35 nCells:0  voxels:(64 64 64) bb:(-4.083003031 -4.375003031 -4.375003031) (-2.332996969 -2.624996969 -2.624996969)
    zone:36 nCells:0  voxels:(64 64 64) bb:(-4.083003031 -4.375003031 -4.375003031) (-2.332996969 -2.624996969 -2.624996969)
    zone:37 nCells:0  voxels:(64 64 64) bb:(-4.083003031 -4.375003031 -4.375003031) (-2.332996969 -2.624996969 -2.624996969)
    zone:38 nCells:0  voxels:(64 64 64) bb:(-4.083003031 -4.375003031 -4.375003031) (-2.332996969 -2.624996969 -2.624996969)
    zone:39 nCells:0  voxels:(64 64 64) bb:(-4.083003031 -4.375003031 -4.375003031) (-2.332996969 -2.624996969 -2.624996969)
    zone:40 nCells:0  voxels:(64 64 64) bb:(-4.083003031 -4.375003031 -4.375003031) (-2.332996969 -2.624996969 -2.624996969)
    zone:41 nCells:0  voxels:(64 64 64) bb:(-4.083003031 -4.375003031 -4.375003031) (-2.332996969 -2.624996969 -2.624996969)
    zone:42 nCells:0  voxels:(64 64 64) bb:(-4.083003031 -4.375003031 -4.375003031) (-2.332996969 -2.624996969 -2.624996969)
    zone:43 nCells:0  voxels:(64 64 64) bb:(-4.083003031 -4.375003031 -4.375003031) (-2.332996969 -2.624996969 -2.624996969)
    zone:44 nCells:0  voxels:(64 64 64) bb:(-4.083003031 -4.375003031 -4.375003031) (-2.332996969 -2.624996969 -2.624996969)
    zone:45 nCells:0  voxels:(64 64 64) bb:(-4.083003031 -4.375003031 -4.375003031) (-2.332996969 -2.624996969 -2.624996969)
    zone:46 nCells:0  voxels:(64 64 64) bb:(-4.083003031 -4.375003031 -4.375003031) (-2.332996969 -2.624996969 -2.624996969)
    zone:47 nCells:0  voxels:(64 64 64) bb:(-4.083003031 -4.375003031 -4.375003031) (-2.332996969 -2.624996969 -2.624996969)
    zone:48 nCells:0  voxels:(64 64 64) bb:(-4.083003031 -4.375003031 -4.375003031) (-2.332996969 -2.624996969 -2.624996969)
    zone:49 nCells:0  voxels:(64 64 64) bb:(-4.083003031 -4.375003031 -4.375003031) (-2.332996969 -2.624996969 -2.624996969)
    zone:50 nCells:0  voxels:(64 64 64) bb:(-4.083003031 -4.375003031 -4.375003031) (-2.332996969 -2.624996969 -2.624996969)
    zone:51 nCells:0  voxels:(64 64 64) bb:(-4.083003031 -4.375003031 -4.375003031) (-2.332996969 -2.624996969 -2.624996969)
    zone:52 nCells:0  voxels:(64 64 64) bb:(-4.083003031 -4.375003031 -4.375003031) (-2.332996969 -2.624996969 -2.624996969)
    zone:53 nCells:0  voxels:(64 64 64) bb:(-4.083003031 -4.375003031 -4.375003031) (-2.332996969 -2.624996969 -2.624996969)
    zone:54 nCells:0  voxels:(64 64 64) bb:(-4.083003031 -4.375003031 -4.375003031) (-2.332996969 -2.624996969 -2.624996969)
    zone:55 nCells:0  voxels:(64 64 64) bb:(-4.083003031 -4.375003031 -4.375003031) (-2.332996969 -2.624996969 -2.624996969)
    zone:56 nCells:0  voxels:(64 64 64) bb:(-4.083003031 -4.375003031 -4.375003031) (-2.332996969 -2.624996969 -2.624996969)
    zone:57 nCells:0  voxels:(64 64 64) bb:(-4.083003031 -4.375003031 -4.375003031) (-2.332996969 -2.624996969 -2.624996969)
    zone:58 nCells:0  voxels:(64 64 64) bb:(-4.083003031 -4.375003031 -4.375003031) (-2.332996969 -2.624996969 -2.624996969)
    zone:59 nCells:0  voxels:(64 64 64) bb:(-4.083003031 -4.375003031 -4.375003031) (-2.332996969 -2.624996969 -2.624996969)
    zone:60 nCells:0  voxels:(64 64 64) bb:(-4.083003031 -4.375003031 -4.375003031) (-2.332996969 -2.624996969 -2.624996969)
    zone:61 nCells:0  voxels:(64 64 64) bb:(-4.083003031 -4.375003031 -4.375003031) (-2.332996969 -2.624996969 -2.624996969)
    zone:62 nCells:0  voxels:(64 64 64) bb:(-4.083003031 -4.375003031 -4.375003031) (-2.332996969 -2.624996969 -2.624996969)
    zone:63 nCells:0  voxels:(64 64 64) bb:(-4.083003031 -4.375003031 -4.375003031) (-2.332996969 -2.624996969 -2.624996969)
    zone:64 nCells:0  voxels:(64 64 64) bb:(-4.083003031 -4.375003031 -4.375003031) (-2.332996969 -2.624996969 -2.624996969)
    zone:65 nCells:0  voxels:(64 64 64) bb:(-4.083003031 -4.375003031 -4.375003031) (-2.332996969 -2.624996969 -2.624996969)
    zone:66 nCells:0  voxels:(64 64 64) bb:(-4.083003031 -4.375003031 -4.375003031) (-2.332996969 -2.624996969 -2.624996969)
    zone:67 nCells:0  voxels:(64 64 64) bb:(-4.083003031 -4.375003031 -4.375003031) (-2.332996969 -2.624996969 -2.624996969)
    zone:68 nCells:0  voxels:(64 64 64) bb:(-4.083003031 -4.375003031 -4.375003031) (-2.332996969 -2.624996969 -2.624996969)
    zone:69 nCells:0  voxels:(64 64 64) bb:(-4.083003031 -4.375003031 -4.375003031) (-2.332996969 -2.624996969 -2.624996969)
    zone:70 nCells:0  voxels:(64 64 64) bb:(-4.083003031 -4.375003031 -4.375003031) (-2.332996969 -2.624996969 -2.624996969)
    zone:71 nCells:0  voxels:(64 64 64) bb:(-4.083003031 -4.375003031 -4.375003031) (-2.332996969 -2.624996969 -2.624996969)
    zone:72 nCells:0  voxels:(64 64 64) bb:(-4.083003031 -4.375003031 -4.375003031) (-2.332996969 -2.624996969 -2.624996969)
    zone:73 nCells:0  voxels:(64 64 64) bb:(-4.083003031 -4.375003031 -4.375003031) (-2.332996969 -2.624996969 -2.624996969)
    zone:74 nCells:0  voxels:(64 64 64) bb:(-4.083003031 -4.375003031 -4.375003031) (-2.332996969 -2.624996969 -2.624996969)
    zone:75 nCells:0  voxels:(64 64 64) bb:(-4.083003031 -4.375003031 -4.375003031) (-2.332996969 -2.624996969 -2.624996969)
    zone:76 nCells:0  voxels:(64 64 64) bb:(-4.083003031 -4.375003031 -4.375003031) (-2.332996969 -2.624996969 -2.624996969)
    zone:77 nCells:0  voxels:(64 64 64) bb:(-4.083003031 -4.375003031 -4.375003031) (-2.332996969 -2.624996969 -2.624996969)
    zone:78 nCells:0  voxels:(64 64 64) bb:(-4.083003031 -4.375003031 -4.375003031) (-2.332996969 -2.624996969 -2.624996969)
    zone:79 nCells:0  voxels:(64 64 64) bb:(-4.083003031 -4.375003031 -4.375003031) (-2.332996969 -2.624996969 -2.624996969)
    zone:80 nCells:0  voxels:(64 64 64) bb:(-4.083003031 -4.375003031 -4.375003031) (-2.332996969 -2.624996969 -2.624996969)
    zone:81 nCells:0  voxels:(64 64 64) bb:(-4.083003031 -4.375003031 -4.375003031) (-2.332996969 -2.624996969 -2.624996969)
    zone:82 nCells:0  voxels:(64 64 64) bb:(-4.083003031 -4.375003031 -4.375003031) (-2.332996969 -2.624996969 -2.624996969)
    zone:83 nCells:0  voxels:(64 64 64) bb:(-4.083003031 -4.375003031 -4.375003031) (-2.332996969 -2.624996969 -2.624996969)
    zone:84 nCells:0  voxels:(64 64 64) bb:(-4.083003031 -4.375003031 -4.375003031) (-2.332996969 -2.624996969 -2.624996969)
    zone:85 nCells:0  voxels:(64 64 64) bb:(-4.083003031 -4.375003031 -4.375003031) (-2.332996969 -2.624996969 -2.624996969)
    zone:86 nCells:0  voxels:(64 64 64) bb:(-4.083003031 -4.375003031 -4.375003031) (-2.332996969 -2.624996969 -2.624996969)
    zone:87 nCells:0  voxels:(64 64 64) bb:(-4.083003031 -4.375003031 -4.375003031) (-2.332996969 -2.624996969 -2.624996969)
    zone:88 nCells:0  voxels:(64 64 64) bb:(-4.083003031 -4.375003031 -4.375003031) (-2.332996969 -2.624996969 -2.624996969)
    zone:89 nCells:0  voxels:(64 64 64) bb:(-4.083003031 -4.375003031 -4.375003031) (-2.332996969 -2.624996969 -2.624996969)
    zone:90 nCells:0  voxels:(64 64 64) bb:(-4.083003031 -4.375003031 -4.375003031) (-2.332996969 -2.624996969 -2.624996969)
    zone:91 nCells:0  voxels:(64 64 64) bb:(-4.083003031 -4.375003031 -4.375003031) (-2.332996969 -2.624996969 -2.624996969)
    zone:92 nCells:0  voxels:(64 64 64) bb:(-4.083003031 -4.375003031 -4.375003031) (-2.332996969 -2.624996969 -2.624996969)
    zone:93 nCells:0  voxels:(64 64 64) bb:(-4.083003031 -4.375003031 -4.375003031) (-2.332996969 -2.624996969 -2.624996969)
    zone:94 nCells:0  voxels:(64 64 64) bb:(-4.083003031 -4.375003031 -4.375003031) (-2.332996969 -2.624996969 -2.624996969)
    zone:95 nCells:0  voxels:(64 64 64) bb:(-4.083003031 -4.375003031 -4.375003031) (-2.332996969 -2.624996969 -2.624996969)
    zone:96 nCells:0  voxels:(64 64 64) bb:(-4.083003031 -4.375003031 -4.375003031) (-2.332996969 -2.624996969 -2.624996969)
    zone:97 nCells:0  voxels:(64 64 64) bb:(-4.083003031 -4.375003031 -4.375003031) (-2.332996969 -2.624996969 -2.624996969)
    zone:98 nCells:0  voxels:(64 64 64) bb:(-4.083003031 -4.375003031 -4.375003031) (-2.332996969 -2.624996969 -2.624996969)
    zone:99 nCells:0  voxels:(64 64 64) bb:(-4.083003031 -4.375003031 -4.375003031) (-2.332996969 -2.624996969 -2.624996969)
    zone:100 nCells:0  voxels:(64 64 64) bb:(-4.083003031 -4.375003031 -4.375003031) (-2.332996969 -2.624996969 -2.624996969)
    zone:101 nCells:0  voxels:(64 64 64) bb:(-4.083003031 -4.375003031 -4.375003031) (-2.332996969 -2.624996969 -2.624996969)
    zone:102 nCells:0  voxels:(64 64 64) bb:(-4.083003031 -4.375003031 -4.375003031) (-2.332996969 -2.624996969 -2.624996969)
    zone:103 nCells:0  voxels:(64 64 64) bb:(-4.083003031 -4.375003031 -4.375003031) (-2.332996969 -2.624996969 -2.624996969)
    zone:104 nCells:0  voxels:(64 64 64) bb:(-4.083003031 -4.375003031 -4.375003031) (-2.332996969 -2.624996969 -2.624996969)
    zone:105 nCells:0  voxels:(64 64 64) bb:(-4.083003031 -4.375003031 -4.375003031) (-2.332996969 -2.624996969 -2.624996969)
    zone:106 nCells:0  voxels:(64 64 64) bb:(-4.083003031 -4.375003031 -4.375003031) (-2.332996969 -2.624996969 -2.624996969)
    zone:107 nCells:0  voxels:(64 64 64) bb:(-4.083003031 -4.375003031 -4.375003031) (-2.332996969 -2.624996969 -2.624996969)
    zone:108 nCells:0  voxels:(64 64 64) bb:(-4.083003031 -4.375003031 -4.375003031) (-2.332996969 -2.624996969 -2.624996969)
    zone:109 nCells:0  voxels:(64 64 64) bb:(-4.083003031 -4.375003031 -4.375003031) (-2.332996969 -2.624996969 -2.624996969)
    zone:110 nCells:0  voxels:(64 64 64) bb:(-4.083003031 -4.375003031 -4.375003031) (-2.332996969 -2.624996969 -2.624996969)
    zone:111 nCells:0  voxels:(64 64 64) bb:(-4.083003031 -4.375003031 -4.375003031) (-2.332996969 -2.624996969 -2.624996969)
    zone:112 nCells:0  voxels:(64 64 64) bb:(-4.083003031 -4.375003031 -4.375003031) (-2.332996969 -2.624996969 -2.624996969)
    zone:113 nCells:0  voxels:(64 64 64) bb:(-4.083003031 -4.375003031 -4.375003031) (-2.332996969 -2.624996969 -2.624996969)
    zone:114 nCells:0  voxels:(64 64 64) bb:(-4.083003031 -4.375003031 -4.375003031) (-2.332996969 -2.624996969 -2.624996969)
    zone:115 nCells:0  voxels:(64 64 64) bb:(-4.083003031 -4.375003031 -4.375003031) (-2.332996969 -2.624996969 -2.624996969)
    zone:116 nCells:0  voxels:(64 64 64) bb:(-4.083003031 -4.375003031 -4.375003031) (-2.332996969 -2.624996969 -2.624996969)
    zone:117 nCells:0  voxels:(64 64 64) bb:(-4.083003031 -4.375003031 -4.375003031) (-2.332996969 -2.624996969 -2.624996969)
    zone:118 nCells:0  voxels:(64 64 64) bb:(-4.083003031 -4.375003031 -4.375003031) (-2.332996969 -2.624996969 -2.624996969)
    zone:119 nCells:0  voxels:(64 64 64) bb:(-4.083003031 -4.375003031 -4.375003031) (-2.332996969 -2.624996969 -2.624996969)
    zone:120 nCells:0  voxels:(64 64 64) bb:(-4.083003031 -4.375003031 -4.375003031) (-2.332996969 -2.624996969 -2.624996969)
    zone:121 nCells:0  voxels:(64 64 64) bb:(-4.083003031 -4.375003031 -4.375003031) (-2.332996969 -2.624996969 -2.624996969)
    zone:122 nCells:0  voxels:(64 64 64) bb:(-4.083003031 -4.375003031 -4.375003031) (-2.332996969 -2.624996969 -2.624996969)
    zone:123 nCells:176000  voxels:(64 64 64) bb:(-0.2000006416 -0.1000006416 -0.3017838057) (0.2000006416 0.2003346601 0.1000006416)
Overset analysis : nCells : 266875
    calculated   : 234851
    interpolated : 32024 (from local:32024  mixed local/remote:0  remote:0)
    hole         : 0

Mesh Courant Number mean: 0.03214754396 max: 38.37857871
PIMPLE: iteration 1
DILUPBiCGStab:  Solving for Ux, Initial residual = 0.992995408, Final residual = 1.72450703e-09, No Iterations 17
DILUPBiCGStab:  Solving for Uy, Initial residual = 0.9998239407, Final residual = 1.339579437e-09, No Iterations 16
DILUPBiCGStab:  Solving for Uz, Initial residual = 0.9998408289, Final residual = 9.963986873e-09, No Iterations 14
DILUPBiCGStab:  Solving for p, Initial residual = 1, Final residual = 0.009911614378, No Iterations 6
DILUPBiCGStab:  Solving for p, Initial residual = 0.001528993695, Final residual = 9.649739139e-06, No Iterations 9
DILUPBiCGStab:  Solving for p, Initial residual = 9.036973783e-06, Final residual = 5.421314644e-07, No Iterations 4
time step continuity errors : sum local = 9.864310713e-12, global = 6.679731886e-12, cumulative = 6.679731886e-12
DILUPBiCGStab:  Solving for p, Initial residual = 0.06047299404, Final residual = 0.0005411027089, No Iterations 6
DILUPBiCGStab:  Solving for p, Initial residual = 0.0006684868781, Final residual = 6.378196954e-06, No Iterations 8
DILUPBiCGStab:  Solving for p, Initial residual = 6.563244393e-06, Final residual = 6.999006247e-07, No Iterations 3
time step continuity errors : sum local = 1.04280906e-11, global = -6.648089516e-12, cumulative = 3.164237004e-14
DILUPBiCGStab:  Solving for p, Initial residual = 0.028592785, Final residual = 0.0002456293735, No Iterations 5
DILUPBiCGStab:  Solving for p, Initial residual = 0.0002597784022, Final residual = 2.014186588e-06, No Iterations 9
DILUPBiCGStab:  Solving for p, Initial residual = 2.032168072e-06, Final residual = 4.095202352e-07, No Iterations 2
time step continuity errors : sum local = 5.783515363e-12, global = -3.278907885e-12, cumulative = -3.247265515e-12
DILUPBiCGStab:  Solving for omega, Initial residual = 1, Final residual = 2.617761928e-09, No Iterations 17
DILUPBiCGStab:  Solving for k, Initial residual = 0.9999999998, Final residual = 5.291567651e-09, No Iterations 17
ExecutionTime = 15.75 s  ClockTime = 18 s

surfaceFieldValue inMassFlow write:
    total faces   = 1225
    total area    = 3.0625

    sum(inlet) of phi = -3.0625

surfaceFieldValue outMassFlow write:
    total faces   = 1225
    total area    = 3.0625

    sum(outlet) of phi = 3.0625

forces forces_object write:
    Sum of forces
        Total    : (0 0 0)
        Pressure : (0 0 0)
        Viscous  : (0 0 0)
    Sum of moments
        Total    : (0 0 0)
        Pressure : (0 0 0)
        Viscous  : (0 0 0)
    writing force and moment files.

forceCoeffs forceCoeffs_object write:
    Coefficient	Total	Pressure	Viscous	Internal
    Cd:	0	0	0	0
    Cd(f):	0	0	0	0
    Cd(r):	0	0	0	0
    Cl:	0	0	0	0
    Cl(f):	0	0	0	0
    Cl(r):	0	0	0	0
    CmPitch:	0	0	0	0
    CmRoll:	0	0	0	0
    CmYaw:	0	0	0	0
    Cs:	0	0	0	0
    Cs(f):	0	0	0	0
    Cs(r):	0	0	0	0

    writing force and moment coefficient files.

--> FOAM Warning : 
    From virtual bool Foam::functionObjects::fieldSelection::checkSelection()
    in file functionObjects/fieldSelections/fieldSelection/fieldSelection.C at line 166
    Field epsilon not found
fieldMinMax minmaxdomain write:
    min(nut) = 0.000665384203 in cell 29864 at location (-0.508 0.85 0.4)
    max(nut) = 0.0006873971416 in cell 121145 at location (-0.08288697245 0.0163941503 -0.01138997955)
    min(U) = (0.989561439 -0.05160308486 -0.0042589428) in cell 124895 at location (-0.078092022 0.07516808577 -0.004488316015)
    max(U) = (1.023601374 0.03957509964 0.04957068023) in cell 119622 at location (-0.09384905968 0.01219883222 -0.007892559113)
    min(k) = 0.009402441488 in cell 256638 at location (0.1375 -0.0075 0.0725)
    max(k) = 0.01 in cell 0 at location (-0.583 -0.85 -0.85)
    min(p) = -0.2930200907 in cell 122695 at location (-0.08728362731 0.03602331882 -0.001624470379)
    max(p) = 0.07382690834 in cell 138827 at location (0.09910140557 0.0162146186 -0.005894705832)
    min(omega) = 14.12296394 in cell 35134 at location (1.142 -0.6 0.6)
    max(omega) = 15 in cell 0 at location (-0.583 -0.85 -0.85)

yPlus yplus write:
    writing field yPlus
Courant Number mean: 3.542442786 max: 2000
Time = 0.1

inverseDistance : detected 124 mesh regions
    zone:0 nCells:42875  voxels:(64 64 64) bb:(-0.5830030311 -0.8750030311 -0.8750030311) (1.167003031 0.8750030311 0.8750030311)
    zone:1 nCells:48000  voxels:(64 64 64) bb:(-0.102264826 -0.0401359067 -0.03716309021) (0.102264826 0.243958847 0.2572908009)
    zone:2 nCells:0  voxels:(64 64 64) bb:(-4.083003031 -4.375003031 -4.375003031) (-2.332996969 -2.624996969 -2.624996969)
    zone:3 nCells:0  voxels:(64 64 64) bb:(-4.083003031 -4.375003031 -4.375003031) (-2.332996969 -2.624996969 -2.624996969)
    zone:4 nCells:0  voxels:(64 64 64) bb:(-4.083003031 -4.375003031 -4.375003031) (-2.332996969 -2.624996969 -2.624996969)
    zone:5 nCells:0  voxels:(64 64 64) bb:(-4.083003031 -4.375003031 -4.375003031) (-2.332996969 -2.624996969 -2.624996969)
    zone:6 nCells:0  voxels:(64 64 64) bb:(-4.083003031 -4.375003031 -4.375003031) (-2.332996969 -2.624996969 -2.624996969)
    zone:7 nCells:0  voxels:(64 64 64) bb:(-4.083003031 -4.375003031 -4.375003031) (-2.332996969 -2.624996969 -2.624996969)
    zone:8 nCells:0  voxels:(64 64 64) bb:(-4.083003031 -4.375003031 -4.375003031) (-2.332996969 -2.624996969 -2.624996969)
    zone:9 nCells:0  voxels:(64 64 64) bb:(-4.083003031 -4.375003031 -4.375003031) (-2.332996969 -2.624996969 -2.624996969)
    zone:10 nCells:0  voxels:(64 64 64) bb:(-4.083003031 -4.375003031 -4.375003031) (-2.332996969 -2.624996969 -2.624996969)
    zone:11 nCells:0  voxels:(64 64 64) bb:(-4.083003031 -4.375003031 -4.375003031) (-2.332996969 -2.624996969 -2.624996969)
    zone:12 nCells:0  voxels:(64 64 64) bb:(-4.083003031 -4.375003031 -4.375003031) (-2.332996969 -2.624996969 -2.624996969)
    zone:13 nCells:0  voxels:(64 64 64) bb:(-4.083003031 -4.375003031 -4.375003031) (-2.332996969 -2.624996969 -2.624996969)
    zone:14 nCells:0  voxels:(64 64 64) bb:(-4.083003031 -4.375003031 -4.375003031) (-2.332996969 -2.624996969 -2.624996969)
    zone:15 nCells:0  voxels:(64 64 64) bb:(-4.083003031 -4.375003031 -4.375003031) (-2.332996969 -2.624996969 -2.624996969)
    zone:16 nCells:0  voxels:(64 64 64) bb:(-4.083003031 -4.375003031 -4.375003031) (-2.332996969 -2.624996969 -2.624996969)
    zone:17 nCells:0  voxels:(64 64 64) bb:(-4.083003031 -4.375003031 -4.375003031) (-2.332996969 -2.624996969 -2.624996969)
    zone:18 nCells:0  voxels:(64 64 64) bb:(-4.083003031 -4.375003031 -4.375003031) (-2.332996969 -2.624996969 -2.624996969)
    zone:19 nCells:0  voxels:(64 64 64) bb:(-4.083003031 -4.375003031 -4.375003031) (-2.332996969 -2.624996969 -2.624996969)
    zone:20 nCells:0  voxels:(64 64 64) bb:(-4.083003031 -4.375003031 -4.375003031) (-2.332996969 -2.624996969 -2.624996969)
    zone:21 nCells:0  voxels:(64 64 64) bb:(-4.083003031 -4.375003031 -4.375003031) (-2.332996969 -2.624996969 -2.624996969)
    zone:22 nCells:0  voxels:(64 64 64) bb:(-4.083003031 -4.375003031 -4.375003031) (-2.332996969 -2.624996969 -2.624996969)
    zone:23 nCells:0  voxels:(64 64 64) bb:(-4.083003031 -4.375003031 -4.375003031) (-2.332996969 -2.624996969 -2.624996969)
    zone:24 nCells:0  voxels:(64 64 64) bb:(-4.083003031 -4.375003031 -4.375003031) (-2.332996969 -2.624996969 -2.624996969)
    zone:25 nCells:0  voxels:(64 64 64) bb:(-4.083003031 -4.375003031 -4.375003031) (-2.332996969 -2.624996969 -2.624996969)
    zone:26 nCells:0  voxels:(64 64 64) bb:(-4.083003031 -4.375003031 -4.375003031) (-2.332996969 -2.624996969 -2.624996969)
    zone:27 nCells:0  voxels:(64 64 64) bb:(-4.083003031 -4.375003031 -4.375003031) (-2.332996969 -2.624996969 -2.624996969)
    zone:28 nCells:0  voxels:(64 64 64) bb:(-4.083003031 -4.375003031 -4.375003031) (-2.332996969 -2.624996969 -2.624996969)
    zone:29 nCells:0  voxels:(64 64 64) bb:(-4.083003031 -4.375003031 -4.375003031) (-2.332996969 -2.624996969 -2.624996969)
    zone:30 nCells:0  voxels:(64 64 64) bb:(-4.083003031 -4.375003031 -4.375003031) (-2.332996969 -2.624996969 -2.624996969)
    zone:31 nCells:0  voxels:(64 64 64) bb:(-4.083003031 -4.375003031 -4.375003031) (-2.332996969 -2.624996969 -2.624996969)
    zone:32 nCells:0  voxels:(64 64 64) bb:(-4.083003031 -4.375003031 -4.375003031) (-2.332996969 -2.624996969 -2.624996969)
    zone:33 nCells:0  voxels:(64 64 64) bb:(-4.083003031 -4.375003031 -4.375003031) (-2.332996969 -2.624996969 -2.624996969)
    zone:34 nCells:0  voxels:(64 64 64) bb:(-4.083003031 -4.375003031 -4.375003031) (-2.332996969 -2.624996969 -2.624996969)
    zone:35 nCells:0  voxels:(64 64 64) bb:(-4.083003031 -4.375003031 -4.375003031) (-2.332996969 -2.624996969 -2.624996969)
    zone:36 nCells:0  voxels:(64 64 64) bb:(-4.083003031 -4.375003031 -4.375003031) (-2.332996969 -2.624996969 -2.624996969)
    zone:37 nCells:0  voxels:(64 64 64) bb:(-4.083003031 -4.375003031 -4.375003031) (-2.332996969 -2.624996969 -2.624996969)
    zone:38 nCells:0  voxels:(64 64 64) bb:(-4.083003031 -4.375003031 -4.375003031) (-2.332996969 -2.624996969 -2.624996969)
    zone:39 nCells:0  voxels:(64 64 64) bb:(-4.083003031 -4.375003031 -4.375003031) (-2.332996969 -2.624996969 -2.624996969)
    zone:40 nCells:0  voxels:(64 64 64) bb:(-4.083003031 -4.375003031 -4.375003031) (-2.332996969 -2.624996969 -2.624996969)
    zone:41 nCells:0  voxels:(64 64 64) bb:(-4.083003031 -4.375003031 -4.375003031) (-2.332996969 -2.624996969 -2.624996969)
    zone:42 nCells:0  voxels:(64 64 64) bb:(-4.083003031 -4.375003031 -4.375003031) (-2.332996969 -2.624996969 -2.624996969)
    zone:43 nCells:0  voxels:(64 64 64) bb:(-4.083003031 -4.375003031 -4.375003031) (-2.332996969 -2.624996969 -2.624996969)
    zone:44 nCells:0  voxels:(64 64 64) bb:(-4.083003031 -4.375003031 -4.375003031) (-2.332996969 -2.624996969 -2.624996969)
    zone:45 nCells:0  voxels:(64 64 64) bb:(-4.083003031 -4.375003031 -4.375003031) (-2.332996969 -2.624996969 -2.624996969)
    zone:46 nCells:0  voxels:(64 64 64) bb:(-4.083003031 -4.375003031 -4.375003031) (-2.332996969 -2.624996969 -2.624996969)
    zone:47 nCells:0  voxels:(64 64 64) bb:(-4.083003031 -4.375003031 -4.375003031) (-2.332996969 -2.624996969 -2.624996969)
    zone:48 nCells:0  voxels:(64 64 64) bb:(-4.083003031 -4.375003031 -4.375003031) (-2.332996969 -2.624996969 -2.624996969)
    zone:49 nCells:0  voxels:(64 64 64) bb:(-4.083003031 -4.375003031 -4.375003031) (-2.332996969 -2.624996969 -2.624996969)
    zone:50 nCells:0  voxels:(64 64 64) bb:(-4.083003031 -4.375003031 -4.375003031) (-2.332996969 -2.624996969 -2.624996969)
    zone:51 nCells:0  voxels:(64 64 64) bb:(-4.083003031 -4.375003031 -4.375003031) (-2.332996969 -2.624996969 -2.624996969)
    zone:52 nCells:0  voxels:(64 64 64) bb:(-4.083003031 -4.375003031 -4.375003031) (-2.332996969 -2.624996969 -2.624996969)
    zone:53 nCells:0  voxels:(64 64 64) bb:(-4.083003031 -4.375003031 -4.375003031) (-2.332996969 -2.624996969 -2.624996969)
    zone:54 nCells:0  voxels:(64 64 64) bb:(-4.083003031 -4.375003031 -4.375003031) (-2.332996969 -2.624996969 -2.624996969)
    zone:55 nCells:0  voxels:(64 64 64) bb:(-4.083003031 -4.375003031 -4.375003031) (-2.332996969 -2.624996969 -2.624996969)
    zone:56 nCells:0  voxels:(64 64 64) bb:(-4.083003031 -4.375003031 -4.375003031) (-2.332996969 -2.624996969 -2.624996969)
    zone:57 nCells:0  voxels:(64 64 64) bb:(-4.083003031 -4.375003031 -4.375003031) (-2.332996969 -2.624996969 -2.624996969)
    zone:58 nCells:0  voxels:(64 64 64) bb:(-4.083003031 -4.375003031 -4.375003031) (-2.332996969 -2.624996969 -2.624996969)
    zone:59 nCells:0  voxels:(64 64 64) bb:(-4.083003031 -4.375003031 -4.375003031) (-2.332996969 -2.624996969 -2.624996969)
    zone:60 nCells:0  voxels:(64 64 64) bb:(-4.083003031 -4.375003031 -4.375003031) (-2.332996969 -2.624996969 -2.624996969)
    zone:61 nCells:0  voxels:(64 64 64) bb:(-4.083003031 -4.375003031 -4.375003031) (-2.332996969 -2.624996969 -2.624996969)
    zone:62 nCells:0  voxels:(64 64 64) bb:(-4.083003031 -4.375003031 -4.375003031) (-2.332996969 -2.624996969 -2.624996969)
    zone:63 nCells:0  voxels:(64 64 64) bb:(-4.083003031 -4.375003031 -4.375003031) (-2.332996969 -2.624996969 -2.624996969)
    zone:64 nCells:0  voxels:(64 64 64) bb:(-4.083003031 -4.375003031 -4.375003031) (-2.332996969 -2.624996969 -2.624996969)
    zone:65 nCells:0  voxels:(64 64 64) bb:(-4.083003031 -4.375003031 -4.375003031) (-2.332996969 -2.624996969 -2.624996969)
    zone:66 nCells:0  voxels:(64 64 64) bb:(-4.083003031 -4.375003031 -4.375003031) (-2.332996969 -2.624996969 -2.624996969)
    zone:67 nCells:0  voxels:(64 64 64) bb:(-4.083003031 -4.375003031 -4.375003031) (-2.332996969 -2.624996969 -2.624996969)
    zone:68 nCells:0  voxels:(64 64 64) bb:(-4.083003031 -4.375003031 -4.375003031) (-2.332996969 -2.624996969 -2.624996969)
    zone:69 nCells:0  voxels:(64 64 64) bb:(-4.083003031 -4.375003031 -4.375003031) (-2.332996969 -2.624996969 -2.624996969)
    zone:70 nCells:0  voxels:(64 64 64) bb:(-4.083003031 -4.375003031 -4.375003031) (-2.332996969 -2.624996969 -2.624996969)
    zone:71 nCells:0  voxels:(64 64 64) bb:(-4.083003031 -4.375003031 -4.375003031) (-2.332996969 -2.624996969 -2.624996969)
    zone:72 nCells:0  voxels:(64 64 64) bb:(-4.083003031 -4.375003031 -4.375003031) (-2.332996969 -2.624996969 -2.624996969)
    zone:73 nCells:0  voxels:(64 64 64) bb:(-4.083003031 -4.375003031 -4.375003031) (-2.332996969 -2.624996969 -2.624996969)
    zone:74 nCells:0  voxels:(64 64 64) bb:(-4.083003031 -4.375003031 -4.375003031) (-2.332996969 -2.624996969 -2.624996969)
    zone:75 nCells:0  voxels:(64 64 64) bb:(-4.083003031 -4.375003031 -4.375003031) (-2.332996969 -2.624996969 -2.624996969)
    zone:76 nCells:0  voxels:(64 64 64) bb:(-4.083003031 -4.375003031 -4.375003031) (-2.332996969 -2.624996969 -2.624996969)
    zone:77 nCells:0  voxels:(64 64 64) bb:(-4.083003031 -4.375003031 -4.375003031) (-2.332996969 -2.624996969 -2.624996969)
    zone:78 nCells:0  voxels:(64 64 64) bb:(-4.083003031 -4.375003031 -4.375003031) (-2.332996969 -2.624996969 -2.624996969)
    zone:79 nCells:0  voxels:(64 64 64) bb:(-4.083003031 -4.375003031 -4.375003031) (-2.332996969 -2.624996969 -2.624996969)
    zone:80 nCells:0  voxels:(64 64 64) bb:(-4.083003031 -4.375003031 -4.375003031) (-2.332996969 -2.624996969 -2.624996969)
    zone:81 nCells:0  voxels:(64 64 64) bb:(-4.083003031 -4.375003031 -4.375003031) (-2.332996969 -2.624996969 -2.624996969)
    zone:82 nCells:0  voxels:(64 64 64) bb:(-4.083003031 -4.375003031 -4.375003031) (-2.332996969 -2.624996969 -2.624996969)
    zone:83 nCells:0  voxels:(64 64 64) bb:(-4.083003031 -4.375003031 -4.375003031) (-2.332996969 -2.624996969 -2.624996969)
    zone:84 nCells:0  voxels:(64 64 64) bb:(-4.083003031 -4.375003031 -4.375003031) (-2.332996969 -2.624996969 -2.624996969)
    zone:85 nCells:0  voxels:(64 64 64) bb:(-4.083003031 -4.375003031 -4.375003031) (-2.332996969 -2.624996969 -2.624996969)
    zone:86 nCells:0  voxels:(64 64 64) bb:(-4.083003031 -4.375003031 -4.375003031) (-2.332996969 -2.624996969 -2.624996969)
    zone:87 nCells:0  voxels:(64 64 64) bb:(-4.083003031 -4.375003031 -4.375003031) (-2.332996969 -2.624996969 -2.624996969)
    zone:88 nCells:0  voxels:(64 64 64) bb:(-4.083003031 -4.375003031 -4.375003031) (-2.332996969 -2.624996969 -2.624996969)
    zone:89 nCells:0  voxels:(64 64 64) bb:(-4.083003031 -4.375003031 -4.375003031) (-2.332996969 -2.624996969 -2.624996969)
    zone:90 nCells:0  voxels:(64 64 64) bb:(-4.083003031 -4.375003031 -4.375003031) (-2.332996969 -2.624996969 -2.624996969)
    zone:91 nCells:0  voxels:(64 64 64) bb:(-4.083003031 -4.375003031 -4.375003031) (-2.332996969 -2.624996969 -2.624996969)
    zone:92 nCells:0  voxels:(64 64 64) bb:(-4.083003031 -4.375003031 -4.375003031) (-2.332996969 -2.624996969 -2.624996969)
    zone:93 nCells:0  voxels:(64 64 64) bb:(-4.083003031 -4.375003031 -4.375003031) (-2.332996969 -2.624996969 -2.624996969)
    zone:94 nCells:0  voxels:(64 64 64) bb:(-4.083003031 -4.375003031 -4.375003031) (-2.332996969 -2.624996969 -2.624996969)
    zone:95 nCells:0  voxels:(64 64 64) bb:(-4.083003031 -4.375003031 -4.375003031) (-2.332996969 -2.624996969 -2.624996969)
    zone:96 nCells:0  voxels:(64 64 64) bb:(-4.083003031 -4.375003031 -4.375003031) (-2.332996969 -2.624996969 -2.624996969)
    zone:97 nCells:0  voxels:(64 64 64) bb:(-4.083003031 -4.375003031 -4.375003031) (-2.332996969 -2.624996969 -2.624996969)
    zone:98 nCells:0  voxels:(64 64 64) bb:(-4.083003031 -4.375003031 -4.375003031) (-2.332996969 -2.624996969 -2.624996969)
    zone:99 nCells:0  voxels:(64 64 64) bb:(-4.083003031 -4.375003031 -4.375003031) (-2.332996969 -2.624996969 -2.624996969)
    zone:100 nCells:0  voxels:(64 64 64) bb:(-4.083003031 -4.375003031 -4.375003031) (-2.332996969 -2.624996969 -2.624996969)
    zone:101 nCells:0  voxels:(64 64 64) bb:(-4.083003031 -4.375003031 -4.375003031) (-2.332996969 -2.624996969 -2.624996969)
    zone:102 nCells:0  voxels:(64 64 64) bb:(-4.083003031 -4.375003031 -4.375003031) (-2.332996969 -2.624996969 -2.624996969)
    zone:103 nCells:0  voxels:(64 64 64) bb:(-4.083003031 -4.375003031 -4.375003031) (-2.332996969 -2.624996969 -2.624996969)
    zone:104 nCells:0  voxels:(64 64 64) bb:(-4.083003031 -4.375003031 -4.375003031) (-2.332996969 -2.624996969 -2.624996969)
    zone:105 nCells:0  voxels:(64 64 64) bb:(-4.083003031 -4.375003031 -4.375003031) (-2.332996969 -2.624996969 -2.624996969)
    zone:106 nCells:0  voxels:(64 64 64) bb:(-4.083003031 -4.375003031 -4.375003031) (-2.332996969 -2.624996969 -2.624996969)
    zone:107 nCells:0  voxels:(64 64 64) bb:(-4.083003031 -4.375003031 -4.375003031) (-2.332996969 -2.624996969 -2.624996969)
    zone:108 nCells:0  voxels:(64 64 64) bb:(-4.083003031 -4.375003031 -4.375003031) (-2.332996969 -2.624996969 -2.624996969)
    zone:109 nCells:0  voxels:(64 64 64) bb:(-4.083003031 -4.375003031 -4.375003031) (-2.332996969 -2.624996969 -2.624996969)
    zone:110 nCells:0  voxels:(64 64 64) bb:(-4.083003031 -4.375003031 -4.375003031) (-2.332996969 -2.624996969 -2.624996969)
    zone:111 nCells:0  voxels:(64 64 64) bb:(-4.083003031 -4.375003031 -4.375003031) (-2.332996969 -2.624996969 -2.624996969)
    zone:112 nCells:0  voxels:(64 64 64) bb:(-4.083003031 -4.375003031 -4.375003031) (-2.332996969 -2.624996969 -2.624996969)
    zone:113 nCells:0  voxels:(64 64 64) bb:(-4.083003031 -4.375003031 -4.375003031) (-2.332996969 -2.624996969 -2.624996969)
    zone:114 nCells:0  voxels:(64 64 64) bb:(-4.083003031 -4.375003031 -4.375003031) (-2.332996969 -2.624996969 -2.624996969)
    zone:115 nCells:0  voxels:(64 64 64) bb:(-4.083003031 -4.375003031 -4.375003031) (-2.332996969 -2.624996969 -2.624996969)
    zone:116 nCells:0  voxels:(64 64 64) bb:(-4.083003031 -4.375003031 -4.375003031) (-2.332996969 -2.624996969 -2.624996969)
    zone:117 nCells:0  voxels:(64 64 64) bb:(-4.083003031 -4.375003031 -4.375003031) (-2.332996969 -2.624996969 -2.624996969)
    zone:118 nCells:0  voxels:(64 64 64) bb:(-4.083003031 -4.375003031 -4.375003031) (-2.332996969 -2.624996969 -2.624996969)
    zone:119 nCells:0  voxels:(64 64 64) bb:(-4.083003031 -4.375003031 -4.375003031) (-2.332996969 -2.624996969 -2.624996969)
    zone:120 nCells:0  voxels:(64 64 64) bb:(-4.083003031 -4.375003031 -4.375003031) (-2.332996969 -2.624996969 -2.624996969)
    zone:121 nCells:0  voxels:(64 64 64) bb:(-4.083003031 -4.375003031 -4.375003031) (-2.332996969 -2.624996969 -2.624996969)
    zone:122 nCells:0  voxels:(64 64 64) bb:(-4.083003031 -4.375003031 -4.375003031) (-2.332996969 -2.624996969 -2.624996969)
    zone:123 nCells:176000  voxels:(64 64 64) bb:(-0.2000006372 -0.1000006372 -0.2572909806) (0.2000006372 0.2439590267 0.1000006372)
Overset analysis : nCells : 266875
    calculated   : 234851
    interpolated : 32024 (from local:32024  mixed local/remote:0  remote:0)
    hole         : 0

Mesh Courant Number mean: 0.02104304407 max: 25.98774442
PIMPLE: iteration 1
DILUPBiCGStab:  Solving for Ux, Initial residual = 0.03909517675, Final residual = 6.272101156e-09, No Iterations 13
DILUPBiCGStab:  Solving for Uy, Initial residual = 0.1359482674, Final residual = 7.664825831e-09, No Iterations 14
DILUPBiCGStab:  Solving for Uz, Initial residual = 0.09305877601, Final residual = 4.383387672e-09, No Iterations 14
DILUPBiCGStab:  Solving for p, Initial residual = 0.3871039936, Final residual = 0.003743132824, No Iterations 6
DILUPBiCGStab:  Solving for p, Initial residual = 0.002339858463, Final residual = 2.254132683e-05, No Iterations 7
DILUPBiCGStab:  Solving for p, Initial residual = 2.101139529e-05, Final residual = 8.094386262e-07, No Iterations 5
time step continuity errors : sum local = 2.817006986e-11, global = 1.056357244e-11, cumulative = 7.316306926e-12
DILUPBiCGStab:  Solving for p, Initial residual = 0.09177317274, Final residual = 0.0006590695437, No Iterations 8
DILUPBiCGStab:  Solving for p, Initial residual = 0.0006519623274, Final residual = 5.592908635e-06, No Iterations 7
DILUPBiCGStab:  Solving for p, Initial residual = 5.696455263e-06, Final residual = 9.138950828e-07, No Iterations 3
time step continuity errors : sum local = 3.064894451e-11, global = -1.403748723e-11, cumulative = -6.721180304e-12
DILUPBiCGStab:  Solving for p, Initial residual = 0.02085154873, Final residual = 0.0001954167741, No Iterations 5
DILUPBiCGStab:  Solving for p, Initial residual = 0.000201104595, Final residual = 1.77524829e-06, No Iterations 8
DILUPBiCGStab:  Solving for p, Initial residual = 1.791205366e-06, Final residual = 3.162620913e-07, No Iterations 2
time step continuity errors : sum local = 1.022816479e-11, global = -7.636147196e-12, cumulative = -1.43573275e-11
DILUPBiCGStab:  Solving for omega, Initial residual = 0.9393010394, Final residual = 6.503556291e-09, No Iterations 15
DILUPBiCGStab:  Solving for k, Initial residual = 0.9401787456, Final residual = 8.407725784e-09, No Iterations 16
ExecutionTime = 30.36 s  ClockTime = 35 s

surfaceFieldValue inMassFlow write:
    total faces   = 1225
    total area    = 3.0625

    sum(inlet) of phi = -3.0625

surfaceFieldValue outMassFlow write:
    total faces   = 1225
    total area    = 3.0625

    sum(outlet) of phi = 3.0625

forces forces_object write:
    Sum of forces
        Total    : (0 0 0)
        Pressure : (0 0 0)
        Viscous  : (0 0 0)
    Sum of moments
        Total    : (0 0 0)
        Pressure : (0 0 0)
        Viscous  : (0 0 0)
    writing force and moment files.

forceCoeffs forceCoeffs_object write:
    Coefficient	Total	Pressure	Viscous	Internal
    Cd:	0	0	0	0
    Cd(f):	0	0	0	0
    Cd(r):	0	0	0	0
    Cl:	0	0	0	0
    Cl(f):	0	0	0	0
    Cl(r):	0	0	0	0
    CmPitch:	0	0	0	0
    CmRoll:	0	0	0	0
    CmYaw:	0	0	0	0
    Cs:	0	0	0	0
    Cs(f):	0	0	0	0
    Cs(r):	0	0	0	0

    writing force and moment coefficient files.

--> FOAM Warning : 
    From virtual bool Foam::functionObjects::fieldSelection::checkSelection()
    in file functionObjects/fieldSelections/fieldSelection/fieldSelection.C at line 166
    Field epsilon not found
fieldMinMax minmaxdomain write:
    min(nut) = 0.0006638387315 in cell 16388 at location (-0.458 -0.4 0.85)
    max(nut) = 0.0006958002573 in cell 121143 at location (-0.08252555642 0.01972986861 -0.01920975853)
    min(U) = (0.9376139783 -0.04730993772 -0.01866824344) in cell 124885 at location (-0.08538016807 0.06307727331 0.0004842430338)
    max(U) = (1.029035511 0.05531654668 0.05870718609) in cell 118831 at location (-0.09227649711 0.03053751154 -0.02283108561)
    min(k) = 0.008859761927 in cell 118044 at location (-0.09346523751 -0.001373911078 -0.02512193752)
    max(k) = 0.01 in cell 0 at location (-0.583 -0.85 -0.85)
    min(p) = -0.3705491823 in cell 121170 at location (-0.09156325286 0.04153144751 -0.01265146604)
    max(p) = 0.08980830503 in cell 137930 at location (0.09298974135 0.03480920849 -0.02569001767)
    min(omega) = 13.33712328 in cell 118044 at location (-0.09346523751 -0.001373911078 -0.02512193752)
    max(omega) = 15 in cell 0 at location (-0.583 -0.85 -0.85)

yPlus yplus write:
    writing field yPlus
Courant Number mean: 3.509742185 max: 2000
Time = 0.15

inverseDistance : detected 124 mesh regions
    zone:0 nCells:42875  voxels:(64 64 64) bb:(-0.5830030311 -0.8750030311 -0.8750030311) (1.167003031 0.8750030311 0.8750030311)
    zone:1 nCells:48000  voxels:(64 64 64) bb:(-0.1085581324 -0.05195044417 -0.04810253222) (0.1085581324 0.2557733844 0.2682302429)
    zone:2 nCells:0  voxels:(64 64 64) bb:(-4.083003031 -4.375003031 -4.375003031) (-2.332996969 -2.624996969 -2.624996969)
    zone:3 nCells:0  voxels:(64 64 64) bb:(-4.083003031 -4.375003031 -4.375003031) (-2.332996969 -2.624996969 -2.624996969)
    zone:4 nCells:0  voxels:(64 64 64) bb:(-4.083003031 -4.375003031 -4.375003031) (-2.332996969 -2.624996969 -2.624996969)
    zone:5 nCells:0  voxels:(64 64 64) bb:(-4.083003031 -4.375003031 -4.375003031) (-2.332996969 -2.624996969 -2.624996969)
    zone:6 nCells:0  voxels:(64 64 64) bb:(-4.083003031 -4.375003031 -4.375003031) (-2.332996969 -2.624996969 -2.624996969)
    zone:7 nCells:0  voxels:(64 64 64) bb:(-4.083003031 -4.375003031 -4.375003031) (-2.332996969 -2.624996969 -2.624996969)
    zone:8 nCells:0  voxels:(64 64 64) bb:(-4.083003031 -4.375003031 -4.375003031) (-2.332996969 -2.624996969 -2.624996969)
    zone:9 nCells:0  voxels:(64 64 64) bb:(-4.083003031 -4.375003031 -4.375003031) (-2.332996969 -2.624996969 -2.624996969)
    zone:10 nCells:0  voxels:(64 64 64) bb:(-4.083003031 -4.375003031 -4.375003031) (-2.332996969 -2.624996969 -2.624996969)
    zone:11 nCells:0  voxels:(64 64 64) bb:(-4.083003031 -4.375003031 -4.375003031) (-2.332996969 -2.624996969 -2.624996969)
    zone:12 nCells:0  voxels:(64 64 64) bb:(-4.083003031 -4.375003031 -4.375003031) (-2.332996969 -2.624996969 -2.624996969)
    zone:13 nCells:0  voxels:(64 64 64) bb:(-4.083003031 -4.375003031 -4.375003031) (-2.332996969 -2.624996969 -2.624996969)
    zone:14 nCells:0  voxels:(64 64 64) bb:(-4.083003031 -4.375003031 -4.375003031) (-2.332996969 -2.624996969 -2.624996969)
    zone:15 nCells:0  voxels:(64 64 64) bb:(-4.083003031 -4.375003031 -4.375003031) (-2.332996969 -2.624996969 -2.624996969)
    zone:16 nCells:0  voxels:(64 64 64) bb:(-4.083003031 -4.375003031 -4.375003031) (-2.332996969 -2.624996969 -2.624996969)
    zone:17 nCells:0  voxels:(64 64 64) bb:(-4.083003031 -4.375003031 -4.375003031) (-2.332996969 -2.624996969 -2.624996969)
    zone:18 nCells:0  voxels:(64 64 64) bb:(-4.083003031 -4.375003031 -4.375003031) (-2.332996969 -2.624996969 -2.624996969)
    zone:19 nCells:0  voxels:(64 64 64) bb:(-4.083003031 -4.375003031 -4.375003031) (-2.332996969 -2.624996969 -2.624996969)
    zone:20 nCells:0  voxels:(64 64 64) bb:(-4.083003031 -4.375003031 -4.375003031) (-2.332996969 -2.624996969 -2.624996969)
    zone:21 nCells:0  voxels:(64 64 64) bb:(-4.083003031 -4.375003031 -4.375003031) (-2.332996969 -2.624996969 -2.624996969)
    zone:22 nCells:0  voxels:(64 64 64) bb:(-4.083003031 -4.375003031 -4.375003031) (-2.332996969 -2.624996969 -2.624996969)
    zone:23 nCells:0  voxels:(64 64 64) bb:(-4.083003031 -4.375003031 -4.375003031) (-2.332996969 -2.624996969 -2.624996969)
    zone:24 nCells:0  voxels:(64 64 64) bb:(-4.083003031 -4.375003031 -4.375003031) (-2.332996969 -2.624996969 -2.624996969)
    zone:25 nCells:0  voxels:(64 64 64) bb:(-4.083003031 -4.375003031 -4.375003031) (-2.332996969 -2.624996969 -2.624996969)
    zone:26 nCells:0  voxels:(64 64 64) bb:(-4.083003031 -4.375003031 -4.375003031) (-2.332996969 -2.624996969 -2.624996969)
    zone:27 nCells:0  voxels:(64 64 64) bb:(-4.083003031 -4.375003031 -4.375003031) (-2.332996969 -2.624996969 -2.624996969)
    zone:28 nCells:0  voxels:(64 64 64) bb:(-4.083003031 -4.375003031 -4.375003031) (-2.332996969 -2.624996969 -2.624996969)
    zone:29 nCells:0  voxels:(64 64 64) bb:(-4.083003031 -4.375003031 -4.375003031) (-2.332996969 -2.624996969 -2.624996969)
    zone:30 nCells:0  voxels:(64 64 64) bb:(-4.083003031 -4.375003031 -4.375003031) (-2.332996969 -2.624996969 -2.624996969)
    zone:31 nCells:0  voxels:(64 64 64) bb:(-4.083003031 -4.375003031 -4.375003031) (-2.332996969 -2.624996969 -2.624996969)
    zone:32 nCells:0  voxels:(64 64 64) bb:(-4.083003031 -4.375003031 -4.375003031) (-2.332996969 -2.624996969 -2.624996969)
    zone:33 nCells:0  voxels:(64 64 64) bb:(-4.083003031 -4.375003031 -4.375003031) (-2.332996969 -2.624996969 -2.624996969)
    zone:34 nCells:0  voxels:(64 64 64) bb:(-4.083003031 -4.375003031 -4.375003031) (-2.332996969 -2.624996969 -2.624996969)
    zone:35 nCells:0  voxels:(64 64 64) bb:(-4.083003031 -4.375003031 -4.375003031) (-2.332996969 -2.624996969 -2.624996969)
    zone:36 nCells:0  voxels:(64 64 64) bb:(-4.083003031 -4.375003031 -4.375003031) (-2.332996969 -2.624996969 -2.624996969)
    zone:37 nCells:0  voxels:(64 64 64) bb:(-4.083003031 -4.375003031 -4.375003031) (-2.332996969 -2.624996969 -2.624996969)
    zone:38 nCells:0  voxels:(64 64 64) bb:(-4.083003031 -4.375003031 -4.375003031) (-2.332996969 -2.624996969 -2.624996969)
    zone:39 nCells:0  voxels:(64 64 64) bb:(-4.083003031 -4.375003031 -4.375003031) (-2.332996969 -2.624996969 -2.624996969)
    zone:40 nCells:0  voxels:(64 64 64) bb:(-4.083003031 -4.375003031 -4.375003031) (-2.332996969 -2.624996969 -2.624996969)
    zone:41 nCells:0  voxels:(64 64 64) bb:(-4.083003031 -4.375003031 -4.375003031) (-2.332996969 -2.624996969 -2.624996969)
    zone:42 nCells:0  voxels:(64 64 64) bb:(-4.083003031 -4.375003031 -4.375003031) (-2.332996969 -2.624996969 -2.624996969)
    zone:43 nCells:0  voxels:(64 64 64) bb:(-4.083003031 -4.375003031 -4.375003031) (-2.332996969 -2.624996969 -2.624996969)
    zone:44 nCells:0  voxels:(64 64 64) bb:(-4.083003031 -4.375003031 -4.375003031) (-2.332996969 -2.624996969 -2.624996969)
    zone:45 nCells:0  voxels:(64 64 64) bb:(-4.083003031 -4.375003031 -4.375003031) (-2.332996969 -2.624996969 -2.624996969)
    zone:46 nCells:0  voxels:(64 64 64) bb:(-4.083003031 -4.375003031 -4.375003031) (-2.332996969 -2.624996969 -2.624996969)
    zone:47 nCells:0  voxels:(64 64 64) bb:(-4.083003031 -4.375003031 -4.375003031) (-2.332996969 -2.624996969 -2.624996969)
    zone:48 nCells:0  voxels:(64 64 64) bb:(-4.083003031 -4.375003031 -4.375003031) (-2.332996969 -2.624996969 -2.624996969)
    zone:49 nCells:0  voxels:(64 64 64) bb:(-4.083003031 -4.375003031 -4.375003031) (-2.332996969 -2.624996969 -2.624996969)
    zone:50 nCells:0  voxels:(64 64 64) bb:(-4.083003031 -4.375003031 -4.375003031) (-2.332996969 -2.624996969 -2.624996969)
    zone:51 nCells:0  voxels:(64 64 64) bb:(-4.083003031 -4.375003031 -4.375003031) (-2.332996969 -2.624996969 -2.624996969)
    zone:52 nCells:0  voxels:(64 64 64) bb:(-4.083003031 -4.375003031 -4.375003031) (-2.332996969 -2.624996969 -2.624996969)
    zone:53 nCells:0  voxels:(64 64 64) bb:(-4.083003031 -4.375003031 -4.375003031) (-2.332996969 -2.624996969 -2.624996969)
    zone:54 nCells:0  voxels:(64 64 64) bb:(-4.083003031 -4.375003031 -4.375003031) (-2.332996969 -2.624996969 -2.624996969)
    zone:55 nCells:0  voxels:(64 64 64) bb:(-4.083003031 -4.375003031 -4.375003031) (-2.332996969 -2.624996969 -2.624996969)
    zone:56 nCells:0  voxels:(64 64 64) bb:(-4.083003031 -4.375003031 -4.375003031) (-2.332996969 -2.624996969 -2.624996969)
    zone:57 nCells:0  voxels:(64 64 64) bb:(-4.083003031 -4.375003031 -4.375003031) (-2.332996969 -2.624996969 -2.624996969)
    zone:58 nCells:0  voxels:(64 64 64) bb:(-4.083003031 -4.375003031 -4.375003031) (-2.332996969 -2.624996969 -2.624996969)
    zone:59 nCells:0  voxels:(64 64 64) bb:(-4.083003031 -4.375003031 -4.375003031) (-2.332996969 -2.624996969 -2.624996969)
    zone:60 nCells:0  voxels:(64 64 64) bb:(-4.083003031 -4.375003031 -4.375003031) (-2.332996969 -2.624996969 -2.624996969)
    zone:61 nCells:0  voxels:(64 64 64) bb:(-4.083003031 -4.375003031 -4.375003031) (-2.332996969 -2.624996969 -2.624996969)
    zone:62 nCells:0  voxels:(64 64 64) bb:(-4.083003031 -4.375003031 -4.375003031) (-2.332996969 -2.624996969 -2.624996969)
    zone:63 nCells:0  voxels:(64 64 64) bb:(-4.083003031 -4.375003031 -4.375003031) (-2.332996969 -2.624996969 -2.624996969)
    zone:64 nCells:0  voxels:(64 64 64) bb:(-4.083003031 -4.375003031 -4.375003031) (-2.332996969 -2.624996969 -2.624996969)
    zone:65 nCells:0  voxels:(64 64 64) bb:(-4.083003031 -4.375003031 -4.375003031) (-2.332996969 -2.624996969 -2.624996969)
    zone:66 nCells:0  voxels:(64 64 64) bb:(-4.083003031 -4.375003031 -4.375003031) (-2.332996969 -2.624996969 -2.624996969)
    zone:67 nCells:0  voxels:(64 64 64) bb:(-4.083003031 -4.375003031 -4.375003031) (-2.332996969 -2.624996969 -2.624996969)
    zone:68 nCells:0  voxels:(64 64 64) bb:(-4.083003031 -4.375003031 -4.375003031) (-2.332996969 -2.624996969 -2.624996969)
    zone:69 nCells:0  voxels:(64 64 64) bb:(-4.083003031 -4.375003031 -4.375003031) (-2.332996969 -2.624996969 -2.624996969)
    zone:70 nCells:0  voxels:(64 64 64) bb:(-4.083003031 -4.375003031 -4.375003031) (-2.332996969 -2.624996969 -2.624996969)
    zone:71 nCells:0  voxels:(64 64 64) bb:(-4.083003031 -4.375003031 -4.375003031) (-2.332996969 -2.624996969 -2.624996969)
    zone:72 nCells:0  voxels:(64 64 64) bb:(-4.083003031 -4.375003031 -4.375003031) (-2.332996969 -2.624996969 -2.624996969)
    zone:73 nCells:0  voxels:(64 64 64) bb:(-4.083003031 -4.375003031 -4.375003031) (-2.332996969 -2.624996969 -2.624996969)
    zone:74 nCells:0  voxels:(64 64 64) bb:(-4.083003031 -4.375003031 -4.375003031) (-2.332996969 -2.624996969 -2.624996969)
    zone:75 nCells:0  voxels:(64 64 64) bb:(-4.083003031 -4.375003031 -4.375003031) (-2.332996969 -2.624996969 -2.624996969)
    zone:76 nCells:0  voxels:(64 64 64) bb:(-4.083003031 -4.375003031 -4.375003031) (-2.332996969 -2.624996969 -2.624996969)
    zone:77 nCells:0  voxels:(64 64 64) bb:(-4.083003031 -4.375003031 -4.375003031) (-2.332996969 -2.624996969 -2.624996969)
    zone:78 nCells:0  voxels:(64 64 64) bb:(-4.083003031 -4.375003031 -4.375003031) (-2.332996969 -2.624996969 -2.624996969)
    zone:79 nCells:0  voxels:(64 64 64) bb:(-4.083003031 -4.375003031 -4.375003031) (-2.332996969 -2.624996969 -2.624996969)
    zone:80 nCells:0  voxels:(64 64 64) bb:(-4.083003031 -4.375003031 -4.375003031) (-2.332996969 -2.624996969 -2.624996969)
    zone:81 nCells:0  voxels:(64 64 64) bb:(-4.083003031 -4.375003031 -4.375003031) (-2.332996969 -2.624996969 -2.624996969)
    zone:82 nCells:0  voxels:(64 64 64) bb:(-4.083003031 -4.375003031 -4.375003031) (-2.332996969 -2.624996969 -2.624996969)
    zone:83 nCells:0  voxels:(64 64 64) bb:(-4.083003031 -4.375003031 -4.375003031) (-2.332996969 -2.624996969 -2.624996969)
    zone:84 nCells:0  voxels:(64 64 64) bb:(-4.083003031 -4.375003031 -4.375003031) (-2.332996969 -2.624996969 -2.624996969)
    zone:85 nCells:0  voxels:(64 64 64) bb:(-4.083003031 -4.375003031 -4.375003031) (-2.332996969 -2.624996969 -2.624996969)
    zone:86 nCells:0  voxels:(64 64 64) bb:(-4.083003031 -4.375003031 -4.375003031) (-2.332996969 -2.624996969 -2.624996969)
    zone:87 nCells:0  voxels:(64 64 64) bb:(-4.083003031 -4.375003031 -4.375003031) (-2.332996969 -2.624996969 -2.624996969)
    zone:88 nCells:0  voxels:(64 64 64) bb:(-4.083003031 -4.375003031 -4.375003031) (-2.332996969 -2.624996969 -2.624996969)
    zone:89 nCells:0  voxels:(64 64 64) bb:(-4.083003031 -4.375003031 -4.375003031) (-2.332996969 -2.624996969 -2.624996969)
    zone:90 nCells:0  voxels:(64 64 64) bb:(-4.083003031 -4.375003031 -4.375003031) (-2.332996969 -2.624996969 -2.624996969)
    zone:91 nCells:0  voxels:(64 64 64) bb:(-4.083003031 -4.375003031 -4.375003031) (-2.332996969 -2.624996969 -2.624996969)
    zone:92 nCells:0  voxels:(64 64 64) bb:(-4.083003031 -4.375003031 -4.375003031) (-2.332996969 -2.624996969 -2.624996969)
    zone:93 nCells:0  voxels:(64 64 64) bb:(-4.083003031 -4.375003031 -4.375003031) (-2.332996969 -2.624996969 -2.624996969)
    zone:94 nCells:0  voxels:(64 64 64) bb:(-4.083003031 -4.375003031 -4.375003031) (-2.332996969 -2.624996969 -2.624996969)
    zone:95 nCells:0  voxels:(64 64 64) bb:(-4.083003031 -4.375003031 -4.375003031) (-2.332996969 -2.624996969 -2.624996969)
    zone:96 nCells:0  voxels:(64 64 64) bb:(-4.083003031 -4.375003031 -4.375003031) (-2.332996969 -2.624996969 -2.624996969)
    zone:97 nCells:0  voxels:(64 64 64) bb:(-4.083003031 -4.375003031 -4.375003031) (-2.332996969 -2.624996969 -2.624996969)
    zone:98 nCells:0  voxels:(64 64 64) bb:(-4.083003031 -4.375003031 -4.375003031) (-2.332996969 -2.624996969 -2.624996969)
    zone:99 nCells:0  voxels:(64 64 64) bb:(-4.083003031 -4.375003031 -4.375003031) (-2.332996969 -2.624996969 -2.624996969)
    zone:100 nCells:0  voxels:(64 64 64) bb:(-4.083003031 -4.375003031 -4.375003031) (-2.332996969 -2.624996969 -2.624996969)
    zone:101 nCells:0  voxels:(64 64 64) bb:(-4.083003031 -4.375003031 -4.375003031) (-2.332996969 -2.624996969 -2.624996969)
    zone:102 nCells:0  voxels:(64 64 64) bb:(-4.083003031 -4.375003031 -4.375003031) (-2.332996969 -2.624996969 -2.624996969)
    zone:103 nCells:0  voxels:(64 64 64) bb:(-4.083003031 -4.375003031 -4.375003031) (-2.332996969 -2.624996969 -2.624996969)
    zone:104 nCells:0  voxels:(64 64 64) bb:(-4.083003031 -4.375003031 -4.375003031) (-2.332996969 -2.624996969 -2.624996969)
    zone:105 nCells:0  voxels:(64 64 64) bb:(-4.083003031 -4.375003031 -4.375003031) (-2.332996969 -2.624996969 -2.624996969)
    zone:106 nCells:0  voxels:(64 64 64) bb:(-4.083003031 -4.375003031 -4.375003031) (-2.332996969 -2.624996969 -2.624996969)
    zone:107 nCells:0  voxels:(64 64 64) bb:(-4.083003031 -4.375003031 -4.375003031) (-2.332996969 -2.624996969 -2.624996969)
    zone:108 nCells:0  voxels:(64 64 64) bb:(-4.083003031 -4.375003031 -4.375003031) (-2.332996969 -2.624996969 -2.624996969)
    zone:109 nCells:0  voxels:(64 64 64) bb:(-4.083003031 -4.375003031 -4.375003031) (-2.332996969 -2.624996969 -2.624996969)
    zone:110 nCells:0  voxels:(64 64 64) bb:(-4.083003031 -4.375003031 -4.375003031) (-2.332996969 -2.624996969 -2.624996969)
    zone:111 nCells:0  voxels:(64 64 64) bb:(-4.083003031 -4.375003031 -4.375003031) (-2.332996969 -2.624996969 -2.624996969)
    zone:112 nCells:0  voxels:(64 64 64) bb:(-4.083003031 -4.375003031 -4.375003031) (-2.332996969 -2.624996969 -2.624996969)
    zone:113 nCells:0  voxels:(64 64 64) bb:(-4.083003031 -4.375003031 -4.375003031) (-2.332996969 -2.624996969 -2.624996969)
    zone:114 nCells:0  voxels:(64 64 64) bb:(-4.083003031 -4.375003031 -4.375003031) (-2.332996969 -2.624996969 -2.624996969)
    zone:115 nCells:0  voxels:(64 64 64) bb:(-4.083003031 -4.375003031 -4.375003031) (-2.332996969 -2.624996969 -2.624996969)
    zone:116 nCells:0  voxels:(64 64 64) bb:(-4.083003031 -4.375003031 -4.375003031) (-2.332996969 -2.624996969 -2.624996969)
    zone:117 nCells:0  voxels:(64 64 64) bb:(-4.083003031 -4.375003031 -4.375003031) (-2.332996969 -2.624996969 -2.624996969)
    zone:118 nCells:0  voxels:(64 64 64) bb:(-4.083003031 -4.375003031 -4.375003031) (-2.332996969 -2.624996969 -2.624996969)
    zone:119 nCells:0  voxels:(64 64 64) bb:(-4.083003031 -4.375003031 -4.375003031) (-2.332996969 -2.624996969 -2.624996969)
    zone:120 nCells:0  voxels:(64 64 64) bb:(-4.083003031 -4.375003031 -4.375003031) (-2.332996969 -2.624996969 -2.624996969)
    zone:121 nCells:0  voxels:(64 64 64) bb:(-4.083003031 -4.375003031 -4.375003031) (-2.332996969 -2.624996969 -2.624996969)
    zone:122 nCells:0  voxels:(64 64 64) bb:(-4.083003031 -4.375003031 -4.375003031) (-2.332996969 -2.624996969 -2.624996969)
    zone:123 nCells:176000  voxels:(64 64 64) bb:(-0.2000006497 -0.1000006497 -0.2682304008) (0.2000006497 0.2557735423 0.1000006497)
Overset analysis : nCells : 266875
    calculated   : 234851
    interpolated : 32024 (from local:32024  mixed local/remote:0  remote:0)
    hole         : 0

Mesh Courant Number mean: 0.007046622885 max: 7.691337006
PIMPLE: iteration 1
DILUPBiCGStab:  Solving for Ux, Initial residual = 0.009991749725, Final residual = 2.117665541e-09, No Iterations 13
DILUPBiCGStab:  Solving for Uy, Initial residual = 0.08358412514, Final residual = 7.702264925e-09, No Iterations 14
DILUPBiCGStab:  Solving for Uz, Initial residual = 0.01524294755, Final residual = 4.078518829e-10, No Iterations 13
DILUPBiCGStab:  Solving for p, Initial residual = 0.4835715491, Final residual = 0.004833322219, No Iterations 6
DILUPBiCGStab:  Solving for p, Initial residual = 0.004988556758, Final residual = 4.210920112e-05, No Iterations 8
DILUPBiCGStab:  Solving for p, Initial residual = 3.522272009e-05, Final residual = 6.480533316e-07, No Iterations 5
time step continuity errors : sum local = 3.492121572e-11, global = -2.294798377e-11, cumulative = -3.730531127e-11
DILUPBiCGStab:  Solving for p, Initial residual = 0.0745955026, Final residual = 0.0007156274612, No Iterations 9
DILUPBiCGStab:  Solving for p, Initial residual = 0.003116380132, Final residual = 2.492437328e-05, No Iterations 7
DILUPBiCGStab:  Solving for p, Initial residual = 2.951939969e-05, Final residual = 9.171045043e-07, No Iterations 4
time step continuity errors : sum local = 9.096204152e-12, global = 5.76136796e-12, cumulative = -3.154394331e-11
DILUPBiCGStab:  Solving for p, Initial residual = 0.08604724981, Final residual = 0.0007966840781, No Iterations 7
DILUPBiCGStab:  Solving for p, Initial residual = 0.0007028812205, Final residual = 6.126412533e-06, No Iterations 7
DILUPBiCGStab:  Solving for p, Initial residual = 5.96262905e-06, Final residual = 9.087188728e-07, No Iterations 3
time step continuity errors : sum local = 9.916670767e-12, global = 6.185579646e-12, cumulative = -2.535836366e-11
DILUPBiCGStab:  Solving for omega, Initial residual = 0.8140713515, Final residual = 7.975108908e-09, No Iterations 15
DILUPBiCGStab:  Solving for k, Initial residual = 0.8141149123, Final residual = 5.39605481e-09, No Iterations 15
ExecutionTime = 44.74 s  ClockTime = 51 s

surfaceFieldValue inMassFlow write:
    total faces   = 1225
    total area    = 3.0625

    sum(inlet) of phi = -3.0625

surfaceFieldValue outMassFlow write:
    total faces   = 1225
    total area    = 3.0625

    sum(outlet) of phi = 3.0625

forces forces_object write:
    Sum of forces
        Total    : (0 0 0)
        Pressure : (0 0 0)
        Viscous  : (0 0 0)
    Sum of moments
        Total    : (0 0 0)
        Pressure : (0 0 0)
        Viscous  : (0 0 0)
    writing force and moment files.

forceCoeffs forceCoeffs_object write:
    Coefficient	Total	Pressure	Viscous	Internal
    Cd:	0	0	0	0
    Cd(f):	0	0	0	0
    Cd(r):	0	0	0	0
    Cl:	0	0	0	0
    Cl(f):	0	0	0	0
    Cl(r):	0	0	0	0
    CmPitch:	0	0	0	0
    CmRoll:	0	0	0	0
    CmYaw:	0	0	0	0
    Cs:	0	0	0	0
    Cs(f):	0	0	0	0
    Cs(r):	0	0	0	0

    writing force and moment coefficient files.

--> FOAM Warning : 
    From virtual bool Foam::functionObjects::fieldSelection::checkSelection()
    in file functionObjects/fieldSelections/fieldSelection/fieldSelection.C at line 166
    Field epsilon not found
fieldMinMax minmaxdomain write:
    min(nut) = 0.0006620210405 in cell 20922 at location (-0.458 0.65 0.05)
    max(nut) = 0.0006887212199 in cell 128289 at location (-0.08983540222 0.03237087026 -0.0006908446248)
    min(U) = (0.9161309772 -0.0159828031 -0.009250333113) in cell 120381 at location (-0.08810421705 0.02367883837 -0.03599596578)
    max(U) = (1.006405456 0.002919401347 0.01459052757) in cell 137779 at location (0.08480003218 0.0380129314 -0.009095140945)
    min(k) = 0.008369694291 in cell 119620 at location (-0.08857582178 -0.005032229082 -0.03532351153)
    max(k) = 0.01 in cell 0 at location (-0.583 -0.85 -0.85)
    min(p) = -0.2526608057 in cell 128300 at location (-0.09958977133 0.02396045525 0.005150148678)
    max(p) = 0.1109416246 in cell 121922 at location (-0.089205612 0.0238604676 -0.02901356361)
    min(omega) = 12.63487004 in cell 119620 at location (-0.08857582178 -0.005032229082 -0.03532351153)
    max(omega) = 15 in cell 0 at location (-0.583 -0.85 -0.85)

yPlus yplus write:
    writing field yPlus
Courant Number mean: 3.483595976 max: 2000
Time = 0.2

inverseDistance : detected 124 mesh regions
    zone:0 nCells:42875  voxels:(64 64 64) bb:(-0.5830030311 -0.8750030311 -0.8750030311) (1.167003031 0.8750030311 0.8750030311)
    zone:1 nCells:48000  voxels:(64 64 64) bb:(-0.1117733454 -0.07865440832 -0.03913081318) (0.1117733454 0.2122810019 0.3077270408)
    zone:2 nCells:0  voxels:(64 64 64) bb:(-4.083003031 -4.375003031 -4.375003031) (-2.332996969 -2.624996969 -2.624996969)
    zone:3 nCells:0  voxels:(64 64 64) bb:(-4.083003031 -4.375003031 -4.375003031) (-2.332996969 -2.624996969 -2.624996969)
    zone:4 nCells:0  voxels:(64 64 64) bb:(-4.083003031 -4.375003031 -4.375003031) (-2.332996969 -2.624996969 -2.624996969)
    zone:5 nCells:0  voxels:(64 64 64) bb:(-4.083003031 -4.375003031 -4.375003031) (-2.332996969 -2.624996969 -2.624996969)
    zone:6 nCells:0  voxels:(64 64 64) bb:(-4.083003031 -4.375003031 -4.375003031) (-2.332996969 -2.624996969 -2.624996969)
    zone:7 nCells:0  voxels:(64 64 64) bb:(-4.083003031 -4.375003031 -4.375003031) (-2.332996969 -2.624996969 -2.624996969)
    zone:8 nCells:0  voxels:(64 64 64) bb:(-4.083003031 -4.375003031 -4.375003031) (-2.332996969 -2.624996969 -2.624996969)
    zone:9 nCells:0  voxels:(64 64 64) bb:(-4.083003031 -4.375003031 -4.375003031) (-2.332996969 -2.624996969 -2.624996969)
    zone:10 nCells:0  voxels:(64 64 64) bb:(-4.083003031 -4.375003031 -4.375003031) (-2.332996969 -2.624996969 -2.624996969)
    zone:11 nCells:0  voxels:(64 64 64) bb:(-4.083003031 -4.375003031 -4.375003031) (-2.332996969 -2.624996969 -2.624996969)
    zone:12 nCells:0  voxels:(64 64 64) bb:(-4.083003031 -4.375003031 -4.375003031) (-2.332996969 -2.624996969 -2.624996969)
    zone:13 nCells:0  voxels:(64 64 64) bb:(-4.083003031 -4.375003031 -4.375003031) (-2.332996969 -2.624996969 -2.624996969)
    zone:14 nCells:0  voxels:(64 64 64) bb:(-4.083003031 -4.375003031 -4.375003031) (-2.332996969 -2.624996969 -2.624996969)
    zone:15 nCells:0  voxels:(64 64 64) bb:(-4.083003031 -4.375003031 -4.375003031) (-2.332996969 -2.624996969 -2.624996969)
    zone:16 nCells:0  voxels:(64 64 64) bb:(-4.083003031 -4.375003031 -4.375003031) (-2.332996969 -2.624996969 -2.624996969)
    zone:17 nCells:0  voxels:(64 64 64) bb:(-4.083003031 -4.375003031 -4.375003031) (-2.332996969 -2.624996969 -2.624996969)
    zone:18 nCells:0  voxels:(64 64 64) bb:(-4.083003031 -4.375003031 -4.375003031) (-2.332996969 -2.624996969 -2.624996969)
    zone:19 nCells:0  voxels:(64 64 64) bb:(-4.083003031 -4.375003031 -4.375003031) (-2.332996969 -2.624996969 -2.624996969)
    zone:20 nCells:0  voxels:(64 64 64) bb:(-4.083003031 -4.375003031 -4.375003031) (-2.332996969 -2.624996969 -2.624996969)
    zone:21 nCells:0  voxels:(64 64 64) bb:(-4.083003031 -4.375003031 -4.375003031) (-2.332996969 -2.624996969 -2.624996969)
    zone:22 nCells:0  voxels:(64 64 64) bb:(-4.083003031 -4.375003031 -4.375003031) (-2.332996969 -2.624996969 -2.624996969)
    zone:23 nCells:0  voxels:(64 64 64) bb:(-4.083003031 -4.375003031 -4.375003031) (-2.332996969 -2.624996969 -2.624996969)
    zone:24 nCells:0  voxels:(64 64 64) bb:(-4.083003031 -4.375003031 -4.375003031) (-2.332996969 -2.624996969 -2.624996969)
    zone:25 nCells:0  voxels:(64 64 64) bb:(-4.083003031 -4.375003031 -4.375003031) (-2.332996969 -2.624996969 -2.624996969)
    zone:26 nCells:0  voxels:(64 64 64) bb:(-4.083003031 -4.375003031 -4.375003031) (-2.332996969 -2.624996969 -2.624996969)
    zone:27 nCells:0  voxels:(64 64 64) bb:(-4.083003031 -4.375003031 -4.375003031) (-2.332996969 -2.624996969 -2.624996969)
    zone:28 nCells:0  voxels:(64 64 64) bb:(-4.083003031 -4.375003031 -4.375003031) (-2.332996969 -2.624996969 -2.624996969)
    zone:29 nCells:0  voxels:(64 64 64) bb:(-4.083003031 -4.375003031 -4.375003031) (-2.332996969 -2.624996969 -2.624996969)
    zone:30 nCells:0  voxels:(64 64 64) bb:(-4.083003031 -4.375003031 -4.375003031) (-2.332996969 -2.624996969 -2.624996969)
    zone:31 nCells:0  voxels:(64 64 64) bb:(-4.083003031 -4.375003031 -4.375003031) (-2.332996969 -2.624996969 -2.624996969)
    zone:32 nCells:0  voxels:(64 64 64) bb:(-4.083003031 -4.375003031 -4.375003031) (-2.332996969 -2.624996969 -2.624996969)
    zone:33 nCells:0  voxels:(64 64 64) bb:(-4.083003031 -4.375003031 -4.375003031) (-2.332996969 -2.624996969 -2.624996969)
    zone:34 nCells:0  voxels:(64 64 64) bb:(-4.083003031 -4.375003031 -4.375003031) (-2.332996969 -2.624996969 -2.624996969)
    zone:35 nCells:0  voxels:(64 64 64) bb:(-4.083003031 -4.375003031 -4.375003031) (-2.332996969 -2.624996969 -2.624996969)
    zone:36 nCells:0  voxels:(64 64 64) bb:(-4.083003031 -4.375003031 -4.375003031) (-2.332996969 -2.624996969 -2.624996969)
    zone:37 nCells:0  voxels:(64 64 64) bb:(-4.083003031 -4.375003031 -4.375003031) (-2.332996969 -2.624996969 -2.624996969)
    zone:38 nCells:0  voxels:(64 64 64) bb:(-4.083003031 -4.375003031 -4.375003031) (-2.332996969 -2.624996969 -2.624996969)
    zone:39 nCells:0  voxels:(64 64 64) bb:(-4.083003031 -4.375003031 -4.375003031) (-2.332996969 -2.624996969 -2.624996969)
    zone:40 nCells:0  voxels:(64 64 64) bb:(-4.083003031 -4.375003031 -4.375003031) (-2.332996969 -2.624996969 -2.624996969)
    zone:41 nCells:0  voxels:(64 64 64) bb:(-4.083003031 -4.375003031 -4.375003031) (-2.332996969 -2.624996969 -2.624996969)
    zone:42 nCells:0  voxels:(64 64 64) bb:(-4.083003031 -4.375003031 -4.375003031) (-2.332996969 -2.624996969 -2.624996969)
    zone:43 nCells:0  voxels:(64 64 64) bb:(-4.083003031 -4.375003031 -4.375003031) (-2.332996969 -2.624996969 -2.624996969)
    zone:44 nCells:0  voxels:(64 64 64) bb:(-4.083003031 -4.375003031 -4.375003031) (-2.332996969 -2.624996969 -2.624996969)
    zone:45 nCells:0  voxels:(64 64 64) bb:(-4.083003031 -4.375003031 -4.375003031) (-2.332996969 -2.624996969 -2.624996969)
    zone:46 nCells:0  voxels:(64 64 64) bb:(-4.083003031 -4.375003031 -4.375003031) (-2.332996969 -2.624996969 -2.624996969)
    zone:47 nCells:0  voxels:(64 64 64) bb:(-4.083003031 -4.375003031 -4.375003031) (-2.332996969 -2.624996969 -2.624996969)
    zone:48 nCells:0  voxels:(64 64 64) bb:(-4.083003031 -4.375003031 -4.375003031) (-2.332996969 -2.624996969 -2.624996969)
    zone:49 nCells:0  voxels:(64 64 64) bb:(-4.083003031 -4.375003031 -4.375003031) (-2.332996969 -2.624996969 -2.624996969)
    zone:50 nCells:0  voxels:(64 64 64) bb:(-4.083003031 -4.375003031 -4.375003031) (-2.332996969 -2.624996969 -2.624996969)
    zone:51 nCells:0  voxels:(64 64 64) bb:(-4.083003031 -4.375003031 -4.375003031) (-2.332996969 -2.624996969 -2.624996969)
    zone:52 nCells:0  voxels:(64 64 64) bb:(-4.083003031 -4.375003031 -4.375003031) (-2.332996969 -2.624996969 -2.624996969)
    zone:53 nCells:0  voxels:(64 64 64) bb:(-4.083003031 -4.375003031 -4.375003031) (-2.332996969 -2.624996969 -2.624996969)
    zone:54 nCells:0  voxels:(64 64 64) bb:(-4.083003031 -4.375003031 -4.375003031) (-2.332996969 -2.624996969 -2.624996969)
    zone:55 nCells:0  voxels:(64 64 64) bb:(-4.083003031 -4.375003031 -4.375003031) (-2.332996969 -2.624996969 -2.624996969)
    zone:56 nCells:0  voxels:(64 64 64) bb:(-4.083003031 -4.375003031 -4.375003031) (-2.332996969 -2.624996969 -2.624996969)
    zone:57 nCells:0  voxels:(64 64 64) bb:(-4.083003031 -4.375003031 -4.375003031) (-2.332996969 -2.624996969 -2.624996969)
    zone:58 nCells:0  voxels:(64 64 64) bb:(-4.083003031 -4.375003031 -4.375003031) (-2.332996969 -2.624996969 -2.624996969)
    zone:59 nCells:0  voxels:(64 64 64) bb:(-4.083003031 -4.375003031 -4.375003031) (-2.332996969 -2.624996969 -2.624996969)
    zone:60 nCells:0  voxels:(64 64 64) bb:(-4.083003031 -4.375003031 -4.375003031) (-2.332996969 -2.624996969 -2.624996969)
    zone:61 nCells:0  voxels:(64 64 64) bb:(-4.083003031 -4.375003031 -4.375003031) (-2.332996969 -2.624996969 -2.624996969)
    zone:62 nCells:0  voxels:(64 64 64) bb:(-4.083003031 -4.375003031 -4.375003031) (-2.332996969 -2.624996969 -2.624996969)
    zone:63 nCells:0  voxels:(64 64 64) bb:(-4.083003031 -4.375003031 -4.375003031) (-2.332996969 -2.624996969 -2.624996969)
    zone:64 nCells:0  voxels:(64 64 64) bb:(-4.083003031 -4.375003031 -4.375003031) (-2.332996969 -2.624996969 -2.624996969)
    zone:65 nCells:0  voxels:(64 64 64) bb:(-4.083003031 -4.375003031 -4.375003031) (-2.332996969 -2.624996969 -2.624996969)
    zone:66 nCells:0  voxels:(64 64 64) bb:(-4.083003031 -4.375003031 -4.375003031) (-2.332996969 -2.624996969 -2.624996969)
    zone:67 nCells:0  voxels:(64 64 64) bb:(-4.083003031 -4.375003031 -4.375003031) (-2.332996969 -2.624996969 -2.624996969)
    zone:68 nCells:0  voxels:(64 64 64) bb:(-4.083003031 -4.375003031 -4.375003031) (-2.332996969 -2.624996969 -2.624996969)
    zone:69 nCells:0  voxels:(64 64 64) bb:(-4.083003031 -4.375003031 -4.375003031) (-2.332996969 -2.624996969 -2.624996969)
    zone:70 nCells:0  voxels:(64 64 64) bb:(-4.083003031 -4.375003031 -4.375003031) (-2.332996969 -2.624996969 -2.624996969)
    zone:71 nCells:0  voxels:(64 64 64) bb:(-4.083003031 -4.375003031 -4.375003031) (-2.332996969 -2.624996969 -2.624996969)
    zone:72 nCells:0  voxels:(64 64 64) bb:(-4.083003031 -4.375003031 -4.375003031) (-2.332996969 -2.624996969 -2.624996969)
    zone:73 nCells:0  voxels:(64 64 64) bb:(-4.083003031 -4.375003031 -4.375003031) (-2.332996969 -2.624996969 -2.624996969)
    zone:74 nCells:0  voxels:(64 64 64) bb:(-4.083003031 -4.375003031 -4.375003031) (-2.332996969 -2.624996969 -2.624996969)
    zone:75 nCells:0  voxels:(64 64 64) bb:(-4.083003031 -4.375003031 -4.375003031) (-2.332996969 -2.624996969 -2.624996969)
    zone:76 nCells:0  voxels:(64 64 64) bb:(-4.083003031 -4.375003031 -4.375003031) (-2.332996969 -2.624996969 -2.624996969)
    zone:77 nCells:0  voxels:(64 64 64) bb:(-4.083003031 -4.375003031 -4.375003031) (-2.332996969 -2.624996969 -2.624996969)
    zone:78 nCells:0  voxels:(64 64 64) bb:(-4.083003031 -4.375003031 -4.375003031) (-2.332996969 -2.624996969 -2.624996969)
    zone:79 nCells:0  voxels:(64 64 64) bb:(-4.083003031 -4.375003031 -4.375003031) (-2.332996969 -2.624996969 -2.624996969)
    zone:80 nCells:0  voxels:(64 64 64) bb:(-4.083003031 -4.375003031 -4.375003031) (-2.332996969 -2.624996969 -2.624996969)
    zone:81 nCells:0  voxels:(64 64 64) bb:(-4.083003031 -4.375003031 -4.375003031) (-2.332996969 -2.624996969 -2.624996969)
    zone:82 nCells:0  voxels:(64 64 64) bb:(-4.083003031 -4.375003031 -4.375003031) (-2.332996969 -2.624996969 -2.624996969)
    zone:83 nCells:0  voxels:(64 64 64) bb:(-4.083003031 -4.375003031 -4.375003031) (-2.332996969 -2.624996969 -2.624996969)
    zone:84 nCells:0  voxels:(64 64 64) bb:(-4.083003031 -4.375003031 -4.375003031) (-2.332996969 -2.624996969 -2.624996969)
    zone:85 nCells:0  voxels:(64 64 64) bb:(-4.083003031 -4.375003031 -4.375003031) (-2.332996969 -2.624996969 -2.624996969)
    zone:86 nCells:0  voxels:(64 64 64) bb:(-4.083003031 -4.375003031 -4.375003031) (-2.332996969 -2.624996969 -2.624996969)
    zone:87 nCells:0  voxels:(64 64 64) bb:(-4.083003031 -4.375003031 -4.375003031) (-2.332996969 -2.624996969 -2.624996969)
    zone:88 nCells:0  voxels:(64 64 64) bb:(-4.083003031 -4.375003031 -4.375003031) (-2.332996969 -2.624996969 -2.624996969)
    zone:89 nCells:0  voxels:(64 64 64) bb:(-4.083003031 -4.375003031 -4.375003031) (-2.332996969 -2.624996969 -2.624996969)
    zone:90 nCells:0  voxels:(64 64 64) bb:(-4.083003031 -4.375003031 -4.375003031) (-2.332996969 -2.624996969 -2.624996969)
    zone:91 nCells:0  voxels:(64 64 64) bb:(-4.083003031 -4.375003031 -4.375003031) (-2.332996969 -2.624996969 -2.624996969)
    zone:92 nCells:0  voxels:(64 64 64) bb:(-4.083003031 -4.375003031 -4.375003031) (-2.332996969 -2.624996969 -2.624996969)
    zone:93 nCells:0  voxels:(64 64 64) bb:(-4.083003031 -4.375003031 -4.375003031) (-2.332996969 -2.624996969 -2.624996969)
    zone:94 nCells:0  voxels:(64 64 64) bb:(-4.083003031 -4.375003031 -4.375003031) (-2.332996969 -2.624996969 -2.624996969)
    zone:95 nCells:0  voxels:(64 64 64) bb:(-4.083003031 -4.375003031 -4.375003031) (-2.332996969 -2.624996969 -2.624996969)
    zone:96 nCells:0  voxels:(64 64 64) bb:(-4.083003031 -4.375003031 -4.375003031) (-2.332996969 -2.624996969 -2.624996969)
    zone:97 nCells:0  voxels:(64 64 64) bb:(-4.083003031 -4.375003031 -4.375003031) (-2.332996969 -2.624996969 -2.624996969)
    zone:98 nCells:0  voxels:(64 64 64) bb:(-4.083003031 -4.375003031 -4.375003031) (-2.332996969 -2.624996969 -2.624996969)
    zone:99 nCells:0  voxels:(64 64 64) bb:(-4.083003031 -4.375003031 -4.375003031) (-2.332996969 -2.624996969 -2.624996969)
    zone:100 nCells:0  voxels:(64 64 64) bb:(-4.083003031 -4.375003031 -4.375003031) (-2.332996969 -2.624996969 -2.624996969)
    zone:101 nCells:0  voxels:(64 64 64) bb:(-4.083003031 -4.375003031 -4.375003031) (-2.332996969 -2.624996969 -2.624996969)
    zone:102 nCells:0  voxels:(64 64 64) bb:(-4.083003031 -4.375003031 -4.375003031) (-2.332996969 -2.624996969 -2.624996969)
    zone:103 nCells:0  voxels:(64 64 64) bb:(-4.083003031 -4.375003031 -4.375003031) (-2.332996969 -2.624996969 -2.624996969)
    zone:104 nCells:0  voxels:(64 64 64) bb:(-4.083003031 -4.375003031 -4.375003031) (-2.332996969 -2.624996969 -2.624996969)
    zone:105 nCells:0  voxels:(64 64 64) bb:(-4.083003031 -4.375003031 -4.375003031) (-2.332996969 -2.624996969 -2.624996969)
    zone:106 nCells:0  voxels:(64 64 64) bb:(-4.083003031 -4.375003031 -4.375003031) (-2.332996969 -2.624996969 -2.624996969)
    zone:107 nCells:0  voxels:(64 64 64) bb:(-4.083003031 -4.375003031 -4.375003031) (-2.332996969 -2.624996969 -2.624996969)
    zone:108 nCells:0  voxels:(64 64 64) bb:(-4.083003031 -4.375003031 -4.375003031) (-2.332996969 -2.624996969 -2.624996969)
    zone:109 nCells:0  voxels:(64 64 64) bb:(-4.083003031 -4.375003031 -4.375003031) (-2.332996969 -2.624996969 -2.624996969)
    zone:110 nCells:0  voxels:(64 64 64) bb:(-4.083003031 -4.375003031 -4.375003031) (-2.332996969 -2.624996969 -2.624996969)
    zone:111 nCells:0  voxels:(64 64 64) bb:(-4.083003031 -4.375003031 -4.375003031) (-2.332996969 -2.624996969 -2.624996969)
    zone:112 nCells:0  voxels:(64 64 64) bb:(-4.083003031 -4.375003031 -4.375003031) (-2.332996969 -2.624996969 -2.624996969)
    zone:113 nCells:0  voxels:(64 64 64) bb:(-4.083003031 -4.375003031 -4.375003031) (-2.332996969 -2.624996969 -2.624996969)
    zone:114 nCells:0  voxels:(64 64 64) bb:(-4.083003031 -4.375003031 -4.375003031) (-2.332996969 -2.624996969 -2.624996969)
    zone:115 nCells:0  voxels:(64 64 64) bb:(-4.083003031 -4.375003031 -4.375003031) (-2.332996969 -2.624996969 -2.624996969)
    zone:116 nCells:0  voxels:(64 64 64) bb:(-4.083003031 -4.375003031 -4.375003031) (-2.332996969 -2.624996969 -2.624996969)
    zone:117 nCells:0  voxels:(64 64 64) bb:(-4.083003031 -4.375003031 -4.375003031) (-2.332996969 -2.624996969 -2.624996969)
    zone:118 nCells:0  voxels:(64 64 64) bb:(-4.083003031 -4.375003031 -4.375003031) (-2.332996969 -2.624996969 -2.624996969)
[...]

yPlus yplus write:
    writing field yPlus
Courant Number mean: 3.521408813 max: 2000
Time = 1

inverseDistance : detected 124 mesh regions
    zone:0 nCells:42875  voxels:(64 64 64) bb:(-0.5830030311 -0.8750030311 -0.8750030311) (1.167003031 0.8750030311 0.8750030311)
    zone:1 nCells:48000  voxels:(64 64 64) bb:(-0.1110706763 -0.08118705245 -4.070767797e-07) (0.1110706763 0.08118705245 0.3000004071)
    zone:2 nCells:0  voxels:(64 64 64) bb:(-4.083003031 -4.375003031 -4.375003031) (-2.332996969 -2.624996969 -2.624996969)
    zone:3 nCells:0  voxels:(64 64 64) bb:(-4.083003031 -4.375003031 -4.375003031) (-2.332996969 -2.624996969 -2.624996969)
    zone:4 nCells:0  voxels:(64 64 64) bb:(-4.083003031 -4.375003031 -4.375003031) (-2.332996969 -2.624996969 -2.624996969)
    zone:5 nCells:0  voxels:(64 64 64) bb:(-4.083003031 -4.375003031 -4.375003031) (-2.332996969 -2.624996969 -2.624996969)
    zone:6 nCells:0  voxels:(64 64 64) bb:(-4.083003031 -4.375003031 -4.375003031) (-2.332996969 -2.624996969 -2.624996969)
    zone:7 nCells:0  voxels:(64 64 64) bb:(-4.083003031 -4.375003031 -4.375003031) (-2.332996969 -2.624996969 -2.624996969)
    zone:8 nCells:0  voxels:(64 64 64) bb:(-4.083003031 -4.375003031 -4.375003031) (-2.332996969 -2.624996969 -2.624996969)
    zone:9 nCells:0  voxels:(64 64 64) bb:(-4.083003031 -4.375003031 -4.375003031) (-2.332996969 -2.624996969 -2.624996969)
    zone:10 nCells:0  voxels:(64 64 64) bb:(-4.083003031 -4.375003031 -4.375003031) (-2.332996969 -2.624996969 -2.624996969)
    zone:11 nCells:0  voxels:(64 64 64) bb:(-4.083003031 -4.375003031 -4.375003031) (-2.332996969 -2.624996969 -2.624996969)
    zone:12 nCells:0  voxels:(64 64 64) bb:(-4.083003031 -4.375003031 -4.375003031) (-2.332996969 -2.624996969 -2.624996969)
    zone:13 nCells:0  voxels:(64 64 64) bb:(-4.083003031 -4.375003031 -4.375003031) (-2.332996969 -2.624996969 -2.624996969)
    zone:14 nCells:0  voxels:(64 64 64) bb:(-4.083003031 -4.375003031 -4.375003031) (-2.332996969 -2.624996969 -2.624996969)
    zone:15 nCells:0  voxels:(64 64 64) bb:(-4.083003031 -4.375003031 -4.375003031) (-2.332996969 -2.624996969 -2.624996969)
    zone:16 nCells:0  voxels:(64 64 64) bb:(-4.083003031 -4.375003031 -4.375003031) (-2.332996969 -2.624996969 -2.624996969)
    zone:17 nCells:0  voxels:(64 64 64) bb:(-4.083003031 -4.375003031 -4.375003031) (-2.332996969 -2.624996969 -2.624996969)
    zone:18 nCells:0  voxels:(64 64 64) bb:(-4.083003031 -4.375003031 -4.375003031) (-2.332996969 -2.624996969 -2.624996969)
    zone:19 nCells:0  voxels:(64 64 64) bb:(-4.083003031 -4.375003031 -4.375003031) (-2.332996969 -2.624996969 -2.624996969)
    zone:20 nCells:0  voxels:(64 64 64) bb:(-4.083003031 -4.375003031 -4.375003031) (-2.332996969 -2.624996969 -2.624996969)
    zone:21 nCells:0  voxels:(64 64 64) bb:(-4.083003031 -4.375003031 -4.375003031) (-2.332996969 -2.624996969 -2.624996969)
    zone:22 nCells:0  voxels:(64 64 64) bb:(-4.083003031 -4.375003031 -4.375003031) (-2.332996969 -2.624996969 -2.624996969)
    zone:23 nCells:0  voxels:(64 64 64) bb:(-4.083003031 -4.375003031 -4.375003031) (-2.332996969 -2.624996969 -2.624996969)
    zone:24 nCells:0  voxels:(64 64 64) bb:(-4.083003031 -4.375003031 -4.375003031) (-2.332996969 -2.624996969 -2.624996969)
    zone:25 nCells:0  voxels:(64 64 64) bb:(-4.083003031 -4.375003031 -4.375003031) (-2.332996969 -2.624996969 -2.624996969)
    zone:26 nCells:0  voxels:(64 64 64) bb:(-4.083003031 -4.375003031 -4.375003031) (-2.332996969 -2.624996969 -2.624996969)
    zone:27 nCells:0  voxels:(64 64 64) bb:(-4.083003031 -4.375003031 -4.375003031) (-2.332996969 -2.624996969 -2.624996969)
    zone:28 nCells:0  voxels:(64 64 64) bb:(-4.083003031 -4.375003031 -4.375003031) (-2.332996969 -2.624996969 -2.624996969)
    zone:29 nCells:0  voxels:(64 64 64) bb:(-4.083003031 -4.375003031 -4.375003031) (-2.332996969 -2.624996969 -2.624996969)
    zone:30 nCells:0  voxels:(64 64 64) bb:(-4.083003031 -4.375003031 -4.375003031) (-2.332996969 -2.624996969 -2.624996969)
    zone:31 nCells:0  voxels:(64 64 64) bb:(-4.083003031 -4.375003031 -4.375003031) (-2.332996969 -2.624996969 -2.624996969)
    zone:32 nCells:0  voxels:(64 64 64) bb:(-4.083003031 -4.375003031 -4.375003031) (-2.332996969 -2.624996969 -2.624996969)
    zone:33 nCells:0  voxels:(64 64 64) bb:(-4.083003031 -4.375003031 -4.375003031) (-2.332996969 -2.624996969 -2.624996969)
    zone:34 nCells:0  voxels:(64 64 64) bb:(-4.083003031 -4.375003031 -4.375003031) (-2.332996969 -2.624996969 -2.624996969)
    zone:35 nCells:0  voxels:(64 64 64) bb:(-4.083003031 -4.375003031 -4.375003031) (-2.332996969 -2.624996969 -2.624996969)
    zone:36 nCells:0  voxels:(64 64 64) bb:(-4.083003031 -4.375003031 -4.375003031) (-2.332996969 -2.624996969 -2.624996969)
    zone:37 nCells:0  voxels:(64 64 64) bb:(-4.083003031 -4.375003031 -4.375003031) (-2.332996969 -2.624996969 -2.624996969)
    zone:38 nCells:0  voxels:(64 64 64) bb:(-4.083003031 -4.375003031 -4.375003031) (-2.332996969 -2.624996969 -2.624996969)
    zone:39 nCells:0  voxels:(64 64 64) bb:(-4.083003031 -4.375003031 -4.375003031) (-2.332996969 -2.624996969 -2.624996969)
    zone:40 nCells:0  voxels:(64 64 64) bb:(-4.083003031 -4.375003031 -4.375003031) (-2.332996969 -2.624996969 -2.624996969)
    zone:41 nCells:0  voxels:(64 64 64) bb:(-4.083003031 -4.375003031 -4.375003031) (-2.332996969 -2.624996969 -2.624996969)
    zone:42 nCells:0  voxels:(64 64 64) bb:(-4.083003031 -4.375003031 -4.375003031) (-2.332996969 -2.624996969 -2.624996969)
    zone:43 nCells:0  voxels:(64 64 64) bb:(-4.083003031 -4.375003031 -4.375003031) (-2.332996969 -2.624996969 -2.624996969)
    zone:44 nCells:0  voxels:(64 64 64) bb:(-4.083003031 -4.375003031 -4.375003031) (-2.332996969 -2.624996969 -2.624996969)
    zone:45 nCells:0  voxels:(64 64 64) bb:(-4.083003031 -4.375003031 -4.375003031) (-2.332996969 -2.624996969 -2.624996969)
    zone:46 nCells:0  voxels:(64 64 64) bb:(-4.083003031 -4.375003031 -4.375003031) (-2.332996969 -2.624996969 -2.624996969)
    zone:47 nCells:0  voxels:(64 64 64) bb:(-4.083003031 -4.375003031 -4.375003031) (-2.332996969 -2.624996969 -2.624996969)
    zone:48 nCells:0  voxels:(64 64 64) bb:(-4.083003031 -4.375003031 -4.375003031) (-2.332996969 -2.624996969 -2.624996969)
    zone:49 nCells:0  voxels:(64 64 64) bb:(-4.083003031 -4.375003031 -4.375003031) (-2.332996969 -2.624996969 -2.624996969)
    zone:50 nCells:0  voxels:(64 64 64) bb:(-4.083003031 -4.375003031 -4.375003031) (-2.332996969 -2.624996969 -2.624996969)
    zone:51 nCells:0  voxels:(64 64 64) bb:(-4.083003031 -4.375003031 -4.375003031) (-2.332996969 -2.624996969 -2.624996969)
    zone:52 nCells:0  voxels:(64 64 64) bb:(-4.083003031 -4.375003031 -4.375003031) (-2.332996969 -2.624996969 -2.624996969)
    zone:53 nCells:0  voxels:(64 64 64) bb:(-4.083003031 -4.375003031 -4.375003031) (-2.332996969 -2.624996969 -2.624996969)
    zone:54 nCells:0  voxels:(64 64 64) bb:(-4.083003031 -4.375003031 -4.375003031) (-2.332996969 -2.624996969 -2.624996969)
    zone:55 nCells:0  voxels:(64 64 64) bb:(-4.083003031 -4.375003031 -4.375003031) (-2.332996969 -2.624996969 -2.624996969)
    zone:56 nCells:0  voxels:(64 64 64) bb:(-4.083003031 -4.375003031 -4.375003031) (-2.332996969 -2.624996969 -2.624996969)
    zone:57 nCells:0  voxels:(64 64 64) bb:(-4.083003031 -4.375003031 -4.375003031) (-2.332996969 -2.624996969 -2.624996969)
    zone:58 nCells:0  voxels:(64 64 64) bb:(-4.083003031 -4.375003031 -4.375003031) (-2.332996969 -2.624996969 -2.624996969)
    zone:59 nCells:0  voxels:(64 64 64) bb:(-4.083003031 -4.375003031 -4.375003031) (-2.332996969 -2.624996969 -2.624996969)
    zone:60 nCells:0  voxels:(64 64 64) bb:(-4.083003031 -4.375003031 -4.375003031) (-2.332996969 -2.624996969 -2.624996969)
    zone:61 nCells:0  voxels:(64 64 64) bb:(-4.083003031 -4.375003031 -4.375003031) (-2.332996969 -2.624996969 -2.624996969)
    zone:62 nCells:0  voxels:(64 64 64) bb:(-4.083003031 -4.375003031 -4.375003031) (-2.332996969 -2.624996969 -2.624996969)
    zone:63 nCells:0  voxels:(64 64 64) bb:(-4.083003031 -4.375003031 -4.375003031) (-2.332996969 -2.624996969 -2.624996969)
    zone:64 nCells:0  voxels:(64 64 64) bb:(-4.083003031 -4.375003031 -4.375003031) (-2.332996969 -2.624996969 -2.624996969)
    zone:65 nCells:0  voxels:(64 64 64) bb:(-4.083003031 -4.375003031 -4.375003031) (-2.332996969 -2.624996969 -2.624996969)
    zone:66 nCells:0  voxels:(64 64 64) bb:(-4.083003031 -4.375003031 -4.375003031) (-2.332996969 -2.624996969 -2.624996969)
    zone:67 nCells:0  voxels:(64 64 64) bb:(-4.083003031 -4.375003031 -4.375003031) (-2.332996969 -2.624996969 -2.624996969)
    zone:68 nCells:0  voxels:(64 64 64) bb:(-4.083003031 -4.375003031 -4.375003031) (-2.332996969 -2.624996969 -2.624996969)
    zone:69 nCells:0  voxels:(64 64 64) bb:(-4.083003031 -4.375003031 -4.375003031) (-2.332996969 -2.624996969 -2.624996969)
    zone:70 nCells:0  voxels:(64 64 64) bb:(-4.083003031 -4.375003031 -4.375003031) (-2.332996969 -2.624996969 -2.624996969)
    zone:71 nCells:0  voxels:(64 64 64) bb:(-4.083003031 -4.375003031 -4.375003031) (-2.332996969 -2.624996969 -2.624996969)
    zone:72 nCells:0  voxels:(64 64 64) bb:(-4.083003031 -4.375003031 -4.375003031) (-2.332996969 -2.624996969 -2.624996969)
    zone:73 nCells:0  voxels:(64 64 64) bb:(-4.083003031 -4.375003031 -4.375003031) (-2.332996969 -2.624996969 -2.624996969)
    zone:74 nCells:0  voxels:(64 64 64) bb:(-4.083003031 -4.375003031 -4.375003031) (-2.332996969 -2.624996969 -2.624996969)
    zone:75 nCells:0  voxels:(64 64 64) bb:(-4.083003031 -4.375003031 -4.375003031) (-2.332996969 -2.624996969 -2.624996969)
    zone:76 nCells:0  voxels:(64 64 64) bb:(-4.083003031 -4.375003031 -4.375003031) (-2.332996969 -2.624996969 -2.624996969)
    zone:77 nCells:0  voxels:(64 64 64) bb:(-4.083003031 -4.375003031 -4.375003031) (-2.332996969 -2.624996969 -2.624996969)
    zone:78 nCells:0  voxels:(64 64 64) bb:(-4.083003031 -4.375003031 -4.375003031) (-2.332996969 -2.624996969 -2.624996969)
    zone:79 nCells:0  voxels:(64 64 64) bb:(-4.083003031 -4.375003031 -4.375003031) (-2.332996969 -2.624996969 -2.624996969)
    zone:80 nCells:0  voxels:(64 64 64) bb:(-4.083003031 -4.375003031 -4.375003031) (-2.332996969 -2.624996969 -2.624996969)
    zone:81 nCells:0  voxels:(64 64 64) bb:(-4.083003031 -4.375003031 -4.375003031) (-2.332996969 -2.624996969 -2.624996969)
    zone:82 nCells:0  voxels:(64 64 64) bb:(-4.083003031 -4.375003031 -4.375003031) (-2.332996969 -2.624996969 -2.624996969)
    zone:83 nCells:0  voxels:(64 64 64) bb:(-4.083003031 -4.375003031 -4.375003031) (-2.332996969 -2.624996969 -2.624996969)
    zone:84 nCells:0  voxels:(64 64 64) bb:(-4.083003031 -4.375003031 -4.375003031) (-2.332996969 -2.624996969 -2.624996969)
    zone:85 nCells:0  voxels:(64 64 64) bb:(-4.083003031 -4.375003031 -4.375003031) (-2.332996969 -2.624996969 -2.624996969)
    zone:86 nCells:0  voxels:(64 64 64) bb:(-4.083003031 -4.375003031 -4.375003031) (-2.332996969 -2.624996969 -2.624996969)
    zone:87 nCells:0  voxels:(64 64 64) bb:(-4.083003031 -4.375003031 -4.375003031) (-2.332996969 -2.624996969 -2.624996969)
    zone:88 nCells:0  voxels:(64 64 64) bb:(-4.083003031 -4.375003031 -4.375003031) (-2.332996969 -2.624996969 -2.624996969)
    zone:89 nCells:0  voxels:(64 64 64) bb:(-4.083003031 -4.375003031 -4.375003031) (-2.332996969 -2.624996969 -2.624996969)
    zone:90 nCells:0  voxels:(64 64 64) bb:(-4.083003031 -4.375003031 -4.375003031) (-2.332996969 -2.624996969 -2.624996969)
    zone:91 nCells:0  voxels:(64 64 64) bb:(-4.083003031 -4.375003031 -4.375003031) (-2.332996969 -2.624996969 -2.624996969)
    zone:92 nCells:0  voxels:(64 64 64) bb:(-4.083003031 -4.375003031 -4.375003031) (-2.332996969 -2.624996969 -2.624996969)
    zone:93 nCells:0  voxels:(64 64 64) bb:(-4.083003031 -4.375003031 -4.375003031) (-2.332996969 -2.624996969 -2.624996969)
    zone:94 nCells:0  voxels:(64 64 64) bb:(-4.083003031 -4.375003031 -4.375003031) (-2.332996969 -2.624996969 -2.624996969)
    zone:95 nCells:0  voxels:(64 64 64) bb:(-4.083003031 -4.375003031 -4.375003031) (-2.332996969 -2.624996969 -2.624996969)
    zone:96 nCells:0  voxels:(64 64 64) bb:(-4.083003031 -4.375003031 -4.375003031) (-2.332996969 -2.624996969 -2.624996969)
    zone:97 nCells:0  voxels:(64 64 64) bb:(-4.083003031 -4.375003031 -4.375003031) (-2.332996969 -2.624996969 -2.624996969)
    zone:98 nCells:0  voxels:(64 64 64) bb:(-4.083003031 -4.375003031 -4.375003031) (-2.332996969 -2.624996969 -2.624996969)
    zone:99 nCells:0  voxels:(64 64 64) bb:(-4.083003031 -4.375003031 -4.375003031) (-2.332996969 -2.624996969 -2.624996969)
    zone:100 nCells:0  voxels:(64 64 64) bb:(-4.083003031 -4.375003031 -4.375003031) (-2.332996969 -2.624996969 -2.624996969)
    zone:101 nCells:0  voxels:(64 64 64) bb:(-4.083003031 -4.375003031 -4.375003031) (-2.332996969 -2.624996969 -2.624996969)
    zone:102 nCells:0  voxels:(64 64 64) bb:(-4.083003031 -4.375003031 -4.375003031) (-2.332996969 -2.624996969 -2.624996969)
    zone:103 nCells:0  voxels:(64 64 64) bb:(-4.083003031 -4.375003031 -4.375003031) (-2.332996969 -2.624996969 -2.624996969)
    zone:104 nCells:0  voxels:(64 64 64) bb:(-4.083003031 -4.375003031 -4.375003031) (-2.332996969 -2.624996969 -2.624996969)
    zone:105 nCells:0  voxels:(64 64 64) bb:(-4.083003031 -4.375003031 -4.375003031) (-2.332996969 -2.624996969 -2.624996969)
    zone:106 nCells:0  voxels:(64 64 64) bb:(-4.083003031 -4.375003031 -4.375003031) (-2.332996969 -2.624996969 -2.624996969)
    zone:107 nCells:0  voxels:(64 64 64) bb:(-4.083003031 -4.375003031 -4.375003031) (-2.332996969 -2.624996969 -2.624996969)
    zone:108 nCells:0  voxels:(64 64 64) bb:(-4.083003031 -4.375003031 -4.375003031) (-2.332996969 -2.624996969 -2.624996969)
    zone:109 nCells:0  voxels:(64 64 64) bb:(-4.083003031 -4.375003031 -4.375003031) (-2.332996969 -2.624996969 -2.624996969)
    zone:110 nCells:0  voxels:(64 64 64) bb:(-4.083003031 -4.375003031 -4.375003031) (-2.332996969 -2.624996969 -2.624996969)
    zone:111 nCells:0  voxels:(64 64 64) bb:(-4.083003031 -4.375003031 -4.375003031) (-2.332996969 -2.624996969 -2.624996969)
    zone:112 nCells:0  voxels:(64 64 64) bb:(-4.083003031 -4.375003031 -4.375003031) (-2.332996969 -2.624996969 -2.624996969)
    zone:113 nCells:0  voxels:(64 64 64) bb:(-4.083003031 -4.375003031 -4.375003031) (-2.332996969 -2.624996969 -2.624996969)
    zone:114 nCells:0  voxels:(64 64 64) bb:(-4.083003031 -4.375003031 -4.375003031) (-2.332996969 -2.624996969 -2.624996969)
    zone:115 nCells:0  voxels:(64 64 64) bb:(-4.083003031 -4.375003031 -4.375003031) (-2.332996969 -2.624996969 -2.624996969)
    zone:116 nCells:0  voxels:(64 64 64) bb:(-4.083003031 -4.375003031 -4.375003031) (-2.332996969 -2.624996969 -2.624996969)
    zone:117 nCells:0  voxels:(64 64 64) bb:(-4.083003031 -4.375003031 -4.375003031) (-2.332996969 -2.624996969 -2.624996969)
    zone:118 nCells:0  voxels:(64 64 64) bb:(-4.083003031 -4.375003031 -4.375003031) (-2.332996969 -2.624996969 -2.624996969)
    zone:119 nCells:0  voxels:(64 64 64) bb:(-4.083003031 -4.375003031 -4.375003031) (-2.332996969 -2.624996969 -2.624996969)
    zone:120 nCells:0  voxels:(64 64 64) bb:(-4.083003031 -4.375003031 -4.375003031) (-2.332996969 -2.624996969 -2.624996969)
    zone:121 nCells:0  voxels:(64 64 64) bb:(-4.083003031 -4.375003031 -4.375003031) (-2.332996969 -2.624996969 -2.624996969)
    zone:122 nCells:0  voxels:(64 64 64) bb:(-4.083003031 -4.375003031 -4.375003031) (-2.332996969 -2.624996969 -2.624996969)
    zone:123 nCells:176000  voxels:(64 64 64) bb:(-0.2000006 -0.1000006 -0.3000006) (0.2000006 0.1000006 0.1000006)
Overset analysis : nCells : 266875
    calculated   : 234851
    interpolated : 32024 (from local:32024  mixed local/remote:0  remote:0)
    hole         : 0

Mesh Courant Number mean: 0.03516728855 max: 39.57720547
PIMPLE: iteration 1
DILUPBiCGStab:  Solving for Ux, Initial residual = 0.004907548914, Final residual = 8.990205989e-09, No Iterations 12
DILUPBiCGStab:  Solving for Uy, Initial residual = 0.1322020437, Final residual = 5.918462486e-10, No Iterations 15
DILUPBiCGStab:  Solving for Uz, Initial residual = 0.007625787631, Final residual = 3.958338183e-09, No Iterations 13
DILUPBiCGStab:  Solving for p, Initial residual = 0.6317508083, Final residual = 0.005499923645, No Iterations 5
DILUPBiCGStab:  Solving for p, Initial residual = 0.006754133188, Final residual = 3.485008796e-05, No Iterations 9
DILUPBiCGStab:  Solving for p, Initial residual = 4.263244199e-05, Final residual = 8.640258166e-07, No Iterations 5
time step continuity errors : sum local = 7.600035011e-12, global = -3.086500689e-12, cumulative = -1.347758595e-11
DILUPBiCGStab:  Solving for p, Initial residual = 0.3142569266, Final residual = 0.002952052535, No Iterations 7
DILUPBiCGStab:  Solving for p, Initial residual = 0.007375855308, Final residual = 6.891246182e-05, No Iterations 7
DILUPBiCGStab:  Solving for p, Initial residual = 5.738658013e-05, Final residual = 7.033660147e-07, No Iterations 7
time step continuity errors : sum local = 2.315969746e-12, global = 1.090450488e-12, cumulative = -1.238713547e-11
DILUPBiCGStab:  Solving for p, Initial residual = 0.1189647024, Final residual = 0.00115571144, No Iterations 6
DILUPBiCGStab:  Solving for p, Initial residual = 0.001546992462, Final residual = 1.522337419e-05, No Iterations 7
DILUPBiCGStab:  Solving for p, Initial residual = 1.517099345e-05, Final residual = 4.865117768e-07, No Iterations 5
time step continuity errors : sum local = 1.110480341e-12, global = 3.578534868e-13, cumulative = -1.202928198e-11
DILUPBiCGStab:  Solving for omega, Initial residual = 0.02248269086, Final residual = 7.62588633e-09, No Iterations 11
DILUPBiCGStab:  Solving for k, Initial residual = 0.02493719373, Final residual = 6.238408172e-09, No Iterations 11
ExecutionTime = 304.87 s  ClockTime = 341 s

surfaceFieldValue inMassFlow write:
    total faces   = 1225
    total area    = 3.0625

    sum(inlet) of phi = -3.0625

surfaceFieldValue outMassFlow write:
    total faces   = 1225
    total area    = 3.0625

    sum(outlet) of phi = 3.0625

forces forces_object write:
    Sum of forces
        Total    : (0 0 0)
        Pressure : (0 0 0)
        Viscous  : (0 0 0)
    Sum of moments
        Total    : (0 0 0)
        Pressure : (0 0 0)
        Viscous  : (0 0 0)
    writing force and moment files.

forceCoeffs forceCoeffs_object write:
    Coefficient	Total	Pressure	Viscous	Internal
    Cd:	0	0	0	0
    Cd(f):	0	0	0	0
    Cd(r):	0	0	0	0
    Cl:	0	0	0	0
    Cl(f):	0	0	0	0
    Cl(r):	0	0	0	0
    CmPitch:	0	0	0	0
    CmRoll:	0	0	0	0
    CmYaw:	0	0	0	0
    Cs:	0	0	0	0
    Cs(f):	0	0	0	0
    Cs(r):	0	0	0	0

    writing force and moment coefficient files.

--> FOAM Warning : 
    From virtual bool Foam::functionObjects::fieldSelection::checkSelection()
    in file functionObjects/fieldSelections/fieldSelection/fieldSelection.C at line 166
    Field epsilon not found
fieldMinMax minmaxdomain write:
    min(nut) = 0.0006319869408 in cell 254586 at location (0.1925 0.0425 -0.0425)
    max(nut) = 0.0006666666667 in cell 0 at location (-0.583 -0.85 -0.85)
    min(U) = (0.9988754083 -0.001019338185 -0.002565481362) in cell 111602 at location (-0.08565193349 -0.008731912172 -0.0575)
    max(U) = (1.004007869 0.003984724374 0.009870530546) in cell 136022 at location (0.07409581205 -0.06687533654 -0.0325)
    min(k) = 0.004316039141 in cell 42874 at location (1.142 0.85 0.85)
    max(k) = 0.01 in cell 0 at location (-0.583 -0.85 -0.85)
    min(p) = -0.004950561013 in cell 121882 at location (-0.07582316823 0.003653376423 -0.0125)
    max(p) = 0.01729079882 in cell 117231 at location (-0.09504885969 -0.005311710738 -0.0125)
    min(omega) = 6.692540724 in cell 42874 at location (1.142 0.85 0.85)
    max(omega) = 15 in cell 0 at location (-0.583 -0.85 -0.85)

yPlus yplus write:
    writing field yPlus
End

