/*---------------------------------------------------------------------------*\
| =========                 |                                                 |
| \\      /  F ield         | OpenFOAM: The Open Source CFD Toolbox           |
|  \\    /   O peration     | Version:  2212                                  |
|   \\  /    A nd           | Website:  www.openfoam.com                      |
|    \\/     M anipulation  |                                                 |
\*---------------------------------------------------------------------------*/
Build  : _fd8c5e00-20221221 OPENFOAM=2212 version=2212
Arch   : "LSB;label=32;scalar=64"
Exec   : overPimpleDyMFoam
Date   : Mar 29 2023
Time   : 15:41:48
Host   : RazorPC
PID    : 3257
I/O    : uncollated
Case   : /mnt/d/Main/HMC/Senior/S2/Thesis/FlappingFlight/open_foam_test/overset/all
nProcs : 1
trapFpe: Floating point exception trapping enabled (FOAM_SIGFPE).
fileModificationChecking : Monitoring run-time modified files using timeStampMaster (fileModificationSkew 5, maxFileModificationPolls 20)
allowSystemOperations : Allowing user-supplied system call operations

// * * * * * * * * * * * * * * * * * * * * * * * * * * * * * * * * * * * * * //
Create time

Create mesh for time = 0

Selecting dynamicFvMesh dynamicOversetFvMesh
Selecting motion solver: multiSolidBodyMotionSolver
Applying motion to entire mesh
Selecting solid-body motion function tabulated6DoFMotion
Applying solid body motion tabulated6DoFMotion to 0 points of cellZone movingZone

PIMPLE: Operating solver in PISO mode

Reading field p

Reading field U

Reading/calculating face flux field phi

Creating cellMask field to block out hole cells

Creating interpolatedCells field 

Selecting incompressible transport model Newtonian
Selecting turbulence model type RAS
Selecting RAS turbulence model kOmegaSST
Selecting patchDistMethod meshWave
RAS
{
    RASModel        kOmegaSST;
    turbulence      on;
    printCoeffs     on;
    alphaK1         0.85;
    alphaK2         1;
    alphaOmega1     0.5;
    alphaOmega2     0.856;
    gamma1          0.5555555556;
    gamma2          0.44;
    beta1           0.075;
    beta2           0.0828;
    betaStar        0.09;
    a1              0.31;
    b1              1;
    c1              10;
    F3              false;
    decayControl    false;
    kInf            0;
    omegaInf        0;
}

Reading/calculating face velocity Uf

No MRF models present

No finite volume options present
Courant Number mean: 0.4 max: 0.4
surfaceFieldValue inMassFlow:
    operation     = sum


surfaceFieldValue outMassFlow:
    operation     = sum


forces forces_object:
--> FOAM Warning : 
    From Foam::labelHashSet Foam::polyBoundaryMesh::patchSet(const Foam::UList<Foam::wordRe>&, bool, bool) const
    in file meshes/polyMesh/polyBoundaryMesh/polyBoundaryMesh.C at line 910
    Cannot find any patch or group names matching leftWing
--> FOAM Warning : 
    From Foam::labelHashSet Foam::polyBoundaryMesh::patchSet(const Foam::UList<Foam::wordRe>&, bool, bool) const
    in file meshes/polyMesh/polyBoundaryMesh/polyBoundaryMesh.C at line 910
    Cannot find any patch or group names matching rightWing
--> FOAM Warning : 
    From Foam::labelHashSet Foam::polyBoundaryMesh::patchSet(const Foam::UList<Foam::wordRe>&, bool, bool) const
    in file meshes/polyMesh/polyBoundaryMesh/polyBoundaryMesh.C at line 910
    Cannot find any patch or group names matching body
    rho: rhoInf
    Freestream density (rhoInf) set to 1
    Not including porosity effects

forceCoeffs forceCoeffs_object:
--> FOAM Warning : 
    From Foam::labelHashSet Foam::polyBoundaryMesh::patchSet(const Foam::UList<Foam::wordRe>&, bool, bool) const
    in file meshes/polyMesh/polyBoundaryMesh/polyBoundaryMesh.C at line 910
    Cannot find any patch or group names matching leftWing
--> FOAM Warning : 
    From Foam::labelHashSet Foam::polyBoundaryMesh::patchSet(const Foam::UList<Foam::wordRe>&, bool, bool) const
    in file meshes/polyMesh/polyBoundaryMesh/polyBoundaryMesh.C at line 910
    Cannot find any patch or group names matching rightWing
--> FOAM Warning : 
    From Foam::labelHashSet Foam::polyBoundaryMesh::patchSet(const Foam::UList<Foam::wordRe>&, bool, bool) const
    in file meshes/polyMesh/polyBoundaryMesh/polyBoundaryMesh.C at line 910
    Cannot find any patch or group names matching body
    rho: rhoInf
    Freestream density (rhoInf) set to 1
    Not including porosity effects
    magUInf: 1
    lRef   : 1
    Aref   : 1
    rhoInf : 1
    Selecting all coefficients
    - Drag force: Cd
    - Drag force front: Cd(f)
    - Drag force rear: Cd(r)
    - Lift force: Cl
    - Lift force front: Cl(f)
    - Lift force rear: Cl(r)
    - Pitch moment: CmPitch
    - Roll moment: CmRoll
    - Yaw moment: CmYaw
    - Side force: Cs
    - Side force front: Cs(f)
    - Side force rear: Cs(r)



Starting time loop

Courant Number mean: 0.4 max: 0.4
deltaT = 0.01
Time = 0.01

inverseDistance : detected 1 mesh regions
    zone:0 nCells:42875  voxels:(35 35 35) bb:(-0.5830030311 -0.8750030311 -0.8750030311) (1.167003031 0.8750030311 0.8750030311)
Overset analysis : nCells : 42875
    calculated   : 42875
    interpolated : 0 (from local:0  mixed local/remote:0  remote:0)
    hole         : 0

Mesh Courant Number mean: 0 max: 0
PIMPLE: iteration 1
DILUPBiCGStab:  Solving for Ux, Initial residual = 0.9999999021, Final residual = 4.307616567e-12, No Iterations 2
DILUPBiCGStab:  Solving for Uy, Initial residual = 0.9966039229, Final residual = 5.773453568e-12, No Iterations 2
DILUPBiCGStab:  Solving for Uz, Initial residual = 0.9966039229, Final residual = 5.773453568e-12, No Iterations 2
DILUPBiCGStab:  Solving for p, Initial residual = 0.999998056, Final residual = 0.008659464139, No Iterations 19
DILUPBiCGStab:  Solving for p, Initial residual = 0.00230578438, Final residual = 2.030522147e-05, No Iterations 22
DILUPBiCGStab:  Solving for p, Initial residual = 1.918727786e-05, Final residual = 9.833659112e-07, No Iterations 8
time step continuity errors : sum local = 7.541179895e-18, global = -7.175029366e-20, cumulative = -7.175029366e-20
DILUPBiCGStab:  Solving for p, Initial residual = 0.1546781202, Final residual = 0.001365307305, No Iterations 19
DILUPBiCGStab:  Solving for p, Initial residual = 0.001774912647, Final residual = 9.721710311e-06, No Iterations 17
DILUPBiCGStab:  Solving for p, Initial residual = 1.008685652e-05, Final residual = 8.798384737e-07, No Iterations 16
time step continuity errors : sum local = 7.03641498e-18, global = -4.120215868e-20, cumulative = -1.129524523e-19
DILUPBiCGStab:  Solving for p, Initial residual = 0.05223618518, Final residual = 0.0004990184988, No Iterations 11
DILUPBiCGStab:  Solving for p, Initial residual = 0.0004995815826, Final residual = 2.372978516e-06, No Iterations 23
DILUPBiCGStab:  Solving for p, Initial residual = 2.341936274e-06, Final residual = 9.328748773e-07, No Iterations 4
time step continuity errors : sum local = 6.97192146e-18, global = -2.042819227e-19, cumulative = -3.17234375e-19
DILUPBiCGStab:  Solving for omega, Initial residual = 1, Final residual = 1.170372057e-12, No Iterations 2
DILUPBiCGStab:  Solving for k, Initial residual = 1, Final residual = 1.427289659e-12, No Iterations 2
ExecutionTime = 2.27 s  ClockTime = 3 s

surfaceFieldValue inMassFlow write:
    total faces   = 1225
    total area    = 3.0625

    sum(inlet) of phi = -3.0625

surfaceFieldValue outMassFlow write:
    total faces   = 1225
    total area    = 3.0625

    sum(outlet) of phi = 3.0625

forces forces_object write:
    Sum of forces
        Total    : (0 0 0)
        Pressure : (0 0 0)
        Viscous  : (0 0 0)
    Sum of moments
        Total    : (0 0 0)
        Pressure : (0 0 0)
        Viscous  : (0 0 0)
    writing force and moment files.

forceCoeffs forceCoeffs_object write:
    Coefficient	Total	Pressure	Viscous	Internal
    Cd:	0	0	0	0
    Cd(f):	0	0	0	0
    Cd(r):	0	0	0	0
    Cl:	0	0	0	0
    Cl(f):	0	0	0	0
    Cl(r):	0	0	0	0
    CmPitch:	0	0	0	0
    CmRoll:	0	0	0	0
    CmYaw:	0	0	0	0
    Cs:	0	0	0	0
    Cs(f):	0	0	0	0
    Cs(r):	0	0	0	0

    writing force and moment coefficient files.

--> FOAM Warning : 
    From virtual bool Foam::functionObjects::fieldSelection::checkSelection()
    in file functionObjects/fieldSelections/fieldSelection/fieldSelection.C at line 166
    Field epsilon not found
fieldMinMax minmaxdomain write:
    min(nut) = 0.0006660650969 in cell 37406 at location (-0.208 0.75 0.75)
    max(nut) = 0.0006666666667 in cell 0 at location (-0.583 -0.85 -0.85)
    min(U) = (1 -3.038236735e-17 -1.721812295e-17) in cell 872 at location (-0.258 -0.4 -0.8)
    max(U) = (1 1.343220175e-17 -2.812839647e-19) in cell 165 at location (-0.108 -0.85 -0.85)
    min(k) = 0.009868410792 in cell 42576 at location (0.792 0.75 0.75)
    max(k) = 0.01 in cell 0 at location (-0.583 -0.85 -0.85)
    min(p) = -2.619139207e-16 in cell 33814 at location (1.092 -0.85 0.8)
    max(p) = 8.926121003e-15 in cell 15530 at location (-0.558 0.85 -0.35)
    min(omega) = 14.81598546 in cell 41322 at location (0.342 0.75 0.75)
    max(omega) = 15 in cell 0 at location (-0.583 -0.85 -0.85)

Courant Number mean: 0.4 max: 0.4
deltaT = 0.01
Time = 0.02

inverseDistance : detected 1 mesh regions
    zone:0 nCells:42875  voxels:(35 35 35) bb:(-0.5830030311 -0.8750030311 -0.8750030311) (1.167003031 0.8750030311 0.8750030311)
Overset analysis : nCells : 42875
    calculated   : 42875
    interpolated : 0 (from local:0  mixed local/remote:0  remote:0)
    hole         : 0

Mesh Courant Number mean: 0 max: 0
PIMPLE: iteration 1
DILUPBiCGStab:  Solving for Ux, Initial residual = 0.680163803, Final residual = 4.717056436e-12, No Iterations 2
DILUPBiCGStab:  Solving for Uy, Initial residual = 0.317269218, Final residual = 2.454134649e-12, No Iterations 2
DILUPBiCGStab:  Solving for Uz, Initial residual = 0.3133858355, Final residual = 2.383484853e-12, No Iterations 2
DILUPBiCGStab:  Solving for p, Initial residual = 0.4592888225, Final residual = 0.004056970841, No Iterations 21
DILUPBiCGStab:  Solving for p, Initial residual = 0.002398139391, Final residual = 1.661704203e-05, No Iterations 16
DILUPBiCGStab:  Solving for p, Initial residual = 1.580708255e-05, Final residual = 9.916185129e-07, No Iterations 19
time step continuity errors : sum local = 1.273501918e-17, global = 6.823364601e-20, cumulative = -2.49000729e-19
DILUPBiCGStab:  Solving for p, Initial residual = 0.1037941178, Final residual = 0.001030679695, No Iterations 22
DILUPBiCGStab:  Solving for p, Initial residual = 0.001172848688, Final residual = 4.961137426e-06, No Iterations 17
DILUPBiCGStab:  Solving for p, Initial residual = 5.214394869e-06, Final residual = 8.047440133e-07, No Iterations 12
time step continuity errors : sum local = 1.165066543e-17, global = 6.959764166e-19, cumulative = 4.469756876e-19
DILUPBiCGStab:  Solving for p, Initial residual = 0.0345320796, Final residual = 0.000322203687, No Iterations 29
DILUPBiCGStab:  Solving for p, Initial residual = 0.000549958684, Final residual = 4.266968152e-06, No Iterations 18
DILUPBiCGStab:  Solving for p, Initial residual = 4.261971475e-06, Final residual = 8.758033276e-07, No Iterations 11
time step continuity errors : sum local = 1.0495693e-17, global = 2.583846096e-19, cumulative = 7.053602972e-19
DILUPBiCGStab:  Solving for omega, Initial residual = 0.9882465728, Final residual = 9.573462371e-13, No Iterations 2
DILUPBiCGStab:  Solving for k, Initial residual = 0.9883318926, Final residual = 1.210579358e-12, No Iterations 2
ExecutionTime = 4.3 s  ClockTime = 5 s

surfaceFieldValue inMassFlow write:
    total faces   = 1225
    total area    = 3.0625

    sum(inlet) of phi = -3.0625

surfaceFieldValue outMassFlow write:
    total faces   = 1225
    total area    = 3.0625

    sum(outlet) of phi = 3.0625

forces forces_object write:
    Sum of forces
        Total    : (0 0 0)
        Pressure : (0 0 0)
        Viscous  : (0 0 0)
    Sum of moments
        Total    : (0 0 0)
        Pressure : (0 0 0)
        Viscous  : (0 0 0)
    writing force and moment files.

forceCoeffs forceCoeffs_object write:
    Coefficient	Total	Pressure	Viscous	Internal
    Cd:	0	0	0	0
    Cd(f):	0	0	0	0
    Cd(r):	0	0	0	0
    Cl:	0	0	0	0
    Cl(f):	0	0	0	0
    Cl(r):	0	0	0	0
    CmPitch:	0	0	0	0
    CmRoll:	0	0	0	0
    CmYaw:	0	0	0	0
    Cs:	0	0	0	0
    Cs(f):	0	0	0	0
    Cs(r):	0	0	0	0

    writing force and moment coefficient files.

--> FOAM Warning : 
    From virtual bool Foam::functionObjects::fieldSelection::checkSelection()
    in file functionObjects/fieldSelections/fieldSelection/fieldSelection.C at line 166
    Field epsilon not found
fieldMinMax minmaxdomain write:
    min(nut) = 0.0006654700451 in cell 37406 at location (-0.208 0.75 0.75)
    max(nut) = 0.0006666666667 in cell 0 at location (-0.583 -0.85 -0.85)
    min(U) = (1 -1.269968648e-16 -3.310837924e-17) in cell 18234 at location (-0.558 -0.2 0.85)
    max(U) = (1 7.601179525e-17 7.670182555e-17) in cell 547 at location (-0.558 -0.25 -0.8)
    min(k) = 0.009740106436 in cell 42576 at location (0.792 0.75 0.75)
    max(k) = 0.01 in cell 0 at location (-0.583 -0.85 -0.85)
    min(p) = -3.920736273e-15 in cell 30380 at location (0.342 0.8 -0.35)
    max(p) = 4.422097727e-15 in cell 4934 at location (-0.558 0.4 -0.65)
    min(omega) = 14.63643105 in cell 41322 at location (0.342 0.75 0.75)
    max(omega) = 15 in cell 0 at location (-0.583 -0.85 -0.85)

Courant Number mean: 0.4 max: 0.4
deltaT = 0.01
Time = 0.03

inverseDistance : detected 1 mesh regions
    zone:0 nCells:42875  voxels:(35 35 35) bb:(-0.5830030311 -0.8750030311 -0.8750030311) (1.167003031 0.8750030311 0.8750030311)
Overset analysis : nCells : 42875
    calculated   : 42875
    interpolated : 0 (from local:0  mixed local/remote:0  remote:0)
    hole         : 0

Mesh Courant Number mean: 0 max: 0
PIMPLE: iteration 1
DILUPBiCGStab:  Solving for Ux, Initial residual = 0.4602916764, Final residual = 4.150107152e-12, No Iterations 2
DILUPBiCGStab:  Solving for Uy, Initial residual = 0.2719353962, Final residual = 2.070413376e-12, No Iterations 2
DILUPBiCGStab:  Solving for Uz, Initial residual = 0.2777576363, Final residual = 1.986036165e-12, No Iterations 2
DILUPBiCGStab:  Solving for p, Initial residual = 0.5658954585, Final residual = 0.005079759615, No Iterations 27
DILUPBiCGStab:  Solving for p, Initial residual = 0.001869851646, Final residual = 9.570147613e-06, No Iterations 19
DILUPBiCGStab:  Solving for p, Initial residual = 9.341276182e-06, Final residual = 9.067535653e-07, No Iterations 17
time step continuity errors : sum local = 1.394406465e-17, global = -1.053023096e-18, cumulative = -3.476627985e-19
DILUPBiCGStab:  Solving for p, Initial residual = 0.1008505256, Final residual = 0.0009588054092, No Iterations 28
DILUPBiCGStab:  Solving for p, Initial residual = 0.001044826882, Final residual = 6.59447733e-06, No Iterations 17
DILUPBiCGStab:  Solving for p, Initial residual = 6.557706614e-06, Final residual = 8.112618291e-07, No Iterations 13
time step continuity errors : sum local = 1.391271494e-17, global = 6.461469126e-19, cumulative = 2.984841141e-19
DILUPBiCGStab:  Solving for p, Initial residual = 0.1138249231, Final residual = 0.0009905237605, No Iterations 26
DILUPBiCGStab:  Solving for p, Initial residual = 0.0005646590802, Final residual = 2.747918737e-06, No Iterations 20
DILUPBiCGStab:  Solving for p, Initial residual = 2.737270837e-06, Final residual = 9.445926113e-07, No Iterations 11
time step continuity errors : sum local = 1.44315418e-17, global = 2.271151187e-18, cumulative = 2.569635301e-18
DILUPBiCGStab:  Solving for omega, Initial residual = 0.9646751406, Final residual = 7.625371081e-13, No Iterations 2
DILUPBiCGStab:  Solving for k, Initial residual = 0.9653970248, Final residual = 9.642245009e-13, No Iterations 2
ExecutionTime = 6.09 s  ClockTime = 7 s

surfaceFieldValue inMassFlow write:
    total faces   = 1225
    total area    = 3.0625

    sum(inlet) of phi = -3.0625

surfaceFieldValue outMassFlow write:
    total faces   = 1225
    total area    = 3.0625

    sum(outlet) of phi = 3.0625

forces forces_object write:
    Sum of forces
        Total    : (0 0 0)
        Pressure : (0 0 0)
        Viscous  : (0 0 0)
    Sum of moments
        Total    : (0 0 0)
        Pressure : (0 0 0)
        Viscous  : (0 0 0)
    writing force and moment files.

forceCoeffs forceCoeffs_object write:
    Coefficient	Total	Pressure	Viscous	Internal
    Cd:	0	0	0	0
    Cd(f):	0	0	0	0
    Cd(r):	0	0	0	0
    Cl:	0	0	0	0
    Cl(f):	0	0	0	0
    Cl(r):	0	0	0	0
    CmPitch:	0	0	0	0
    CmRoll:	0	0	0	0
    CmYaw:	0	0	0	0
    Cs:	0	0	0	0
    Cs(f):	0	0	0	0
    Cs(r):	0	0	0	0

    writing force and moment coefficient files.

--> FOAM Warning : 
    From virtual bool Foam::functionObjects::fieldSelection::checkSelection()
    in file functionObjects/fieldSelections/fieldSelection/fieldSelection.C at line 166
    Field epsilon not found
fieldMinMax minmaxdomain write:
    min(nut) = 0.0006648813825 in cell 37406 at location (-0.208 0.75 0.75)
    max(nut) = 0.0006666666667 in cell 0 at location (-0.583 -0.85 -0.85)
    min(U) = (1 -2.782206246e-17 -1.631951245e-16) in cell 452 at location (-0.558 -0.75 -0.35)
    max(U) = (1 8.480304889e-17 9.31231207e-17) in cell 13825 at location (-0.558 -0.25 0.65)
    min(k) = 0.009614967073 in cell 42302 at location (0.642 0.75 0.75)
    max(k) = 0.01 in cell 0 at location (-0.583 -0.85 -0.85)
    min(p) = 0 in cell 7140 at location (1.167 -0.85 -0.85)
    max(p) = 5.17150898e-14 in cell 17319 at location (-0.558 0.35 0.25)
    min(omega) = 14.46117656 in cell 42742 at location (0.942 0.75 0.75)
    max(omega) = 15 in cell 0 at location (-0.583 -0.85 -0.85)

Courant Number mean: 0.4 max: 0.4
deltaT = 0.01
Time = 0.04

inverseDistance : detected 1 mesh regions
    zone:0 nCells:42875  voxels:(35 35 35) bb:(-0.5830030311 -0.8750030311 -0.8750030311) (1.167003031 0.8750030311 0.8750030311)
Overset analysis : nCells : 42875
    calculated   : 42875
    interpolated : 0 (from local:0  mixed local/remote:0  remote:0)
    hole         : 0

Mesh Courant Number mean: 0 max: 0
PIMPLE: iteration 1
DILUPBiCGStab:  Solving for Ux, Initial residual = 0.4444158915, Final residual = 1.494578132e-12, No Iterations 2
DILUPBiCGStab:  Solving for Uy, Initial residual = 0.2775988118, Final residual = 1.837601722e-12, No Iterations 2
DILUPBiCGStab:  Solving for Uz, Initial residual = 0.3496694757, Final residual = 1.370682566e-12, No Iterations 2
DILUPBiCGStab:  Solving for p, Initial residual = 0.1954195909, Final residual = 0.001790817411, No Iterations 27
DILUPBiCGStab:  Solving for p, Initial residual = 0.001196827672, Final residual = 7.50546494e-06, No Iterations 19
DILUPBiCGStab:  Solving for p, Initial residual = 7.459984183e-06, Final residual = 9.176442636e-07, No Iterations 12
time step continuity errors : sum local = 1.533093816e-17, global = -2.534958495e-19, cumulative = 2.316139451e-18
DILUPBiCGStab:  Solving for p, Initial residual = 0.1048816974, Final residual = 0.0009457295127, No Iterations 24
DILUPBiCGStab:  Solving for p, Initial residual = 0.00177159963, Final residual = 1.614300941e-05, No Iterations 18
DILUPBiCGStab:  Solving for p, Initial residual = 1.656587171e-05, Final residual = 9.018339014e-07, No Iterations 17
time step continuity errors : sum local = 1.560830563e-17, global = 3.104248679e-19, cumulative = 2.626564319e-18
DILUPBiCGStab:  Solving for p, Initial residual = 0.08939890015, Final residual = 0.000839820538, No Iterations 16
DILUPBiCGStab:  Solving for p, Initial residual = 0.0008588126927, Final residual = 7.537870124e-06, No Iterations 21
DILUPBiCGStab:  Solving for p, Initial residual = 7.925313123e-06, Final residual = 5.411080531e-07, No Iterations 2
time step continuity errors : sum local = 1.547234719e-17, global = 6.447982158e-19, cumulative = 3.271362535e-18
DILUPBiCGStab:  Solving for omega, Initial residual = 0.8938434209, Final residual = 6.824001421e-13, No Iterations 2
DILUPBiCGStab:  Solving for k, Initial residual = 0.8949001011, Final residual = 8.616847167e-13, No Iterations 2
ExecutionTime = 8.01 s  ClockTime = 9 s

surfaceFieldValue inMassFlow write:
    total faces   = 1225
    total area    = 3.0625

    sum(inlet) of phi = -3.0625

surfaceFieldValue outMassFlow write:
    total faces   = 1225
    total area    = 3.0625

    sum(outlet) of phi = 3.0625

forces forces_object write:
    Sum of forces
        Total    : (0 0 0)
        Pressure : (0 0 0)
        Viscous  : (0 0 0)
    Sum of moments
        Total    : (0 0 0)
        Pressure : (0 0 0)
        Viscous  : (0 0 0)
    writing force and moment files.

forceCoeffs forceCoeffs_object write:
    Coefficient	Total	Pressure	Viscous	Internal
    Cd:	0	0	0	0
    Cd(f):	0	0	0	0
    Cd(r):	0	0	0	0
    Cl:	0	0	0	0
    Cl(f):	0	0	0	0
    Cl(r):	0	0	0	0
    CmPitch:	0	0	0	0
    CmRoll:	0	0	0	0
    CmYaw:	0	0	0	0
    Cs:	0	0	0	0
    Cs(f):	0	0	0	0
    Cs(r):	0	0	0	0

    writing force and moment coefficient files.

--> FOAM Warning : 
    From virtual bool Foam::functionObjects::fieldSelection::checkSelection()
    in file functionObjects/fieldSelections/fieldSelection/fieldSelection.C at line 166
    Field epsilon not found
fieldMinMax minmaxdomain write:
    min(nut) = 0.0006642989839 in cell 37406 at location (-0.208 0.75 0.75)
    max(nut) = 0.0006666666667 in cell 0 at location (-0.583 -0.85 -0.85)
    min(U) = (1 -5.862606708e-17 -8.658108087e-17) in cell 19490 at location (0.392 0.65 -0.85)
    max(U) = (1 6.765124646e-17 2.099976936e-17) in cell 2618 at location (0.392 -0.75 -0.7)
    min(k) = 0.009492878569 in cell 42642 at location (0.842 0.75 0.75)
    max(k) = 0.01 in cell 0 at location (-0.583 -0.85 -0.85)
    min(p) = -3.943519343e-14 in cell 35719 at location (-0.308 0.6 0.85)
    max(p) = 8.474217858e-16 in cell 9860 at location (1.092 -0.85 -0.6)
    min(omega) = 14.29006935 in cell 42742 at location (0.942 0.75 0.75)
    max(omega) = 15 in cell 0 at location (-0.583 -0.85 -0.85)

Courant Number mean: 0.4 max: 0.4
deltaT = 0.01
Time = 0.05

inverseDistance : detected 1 mesh regions
    zone:0 nCells:42875  voxels:(35 35 35) bb:(-0.5830030311 -0.8750030311 -0.8750030311) (1.167003031 0.8750030311 0.8750030311)
Overset analysis : nCells : 42875
    calculated   : 42875
    interpolated : 0 (from local:0  mixed local/remote:0  remote:0)
    hole         : 0

Mesh Courant Number mean: 0 max: 0
PIMPLE: iteration 1
DILUPBiCGStab:  Solving for Ux, Initial residual = 0.3867851816, Final residual = 2.59763546e-12, No Iterations 2
DILUPBiCGStab:  Solving for Uy, Initial residual = 0.3362721851, Final residual = 2.244830502e-12, No Iterations 2
DILUPBiCGStab:  Solving for Uz, Initial residual = 0.4864982548, Final residual = 1.71815465e-12, No Iterations 2
DILUPBiCGStab:  Solving for p, Initial residual = 0.2862938328, Final residual = 0.002824561441, No Iterations 24
DILUPBiCGStab:  Solving for p, Initial residual = 0.003628997574, Final residual = 2.896387514e-05, No Iterations 17
DILUPBiCGStab:  Solving for p, Initial residual = 3.497196796e-05, Final residual = 9.124996017e-07, No Iterations 18
time step continuity errors : sum local = 1.555447552e-17, global = -1.79480218e-19, cumulative = 3.091882317e-18
DILUPBiCGStab:  Solving for p, Initial residual = 0.2259532886, Final residual = 0.001970815999, No Iterations 13
DILUPBiCGStab:  Solving for p, Initial residual = 0.002037517918, Final residual = 1.860093099e-05, No Iterations 21
DILUPBiCGStab:  Solving for p, Initial residual = 2.044649535e-05, Final residual = 9.565316315e-07, No Iterations 17
time step continuity errors : sum local = 1.510497935e-17, global = -8.599844019e-20, cumulative = 3.005883877e-18
DILUPBiCGStab:  Solving for p, Initial residual = 0.0814189975, Final residual = 0.0008059672712, No Iterations 20
DILUPBiCGStab:  Solving for p, Initial residual = 0.0007755813541, Final residual = 7.232033e-06, No Iterations 17
DILUPBiCGStab:  Solving for p, Initial residual = 6.945919379e-06, Final residual = 9.597170227e-07, No Iterations 5
time step continuity errors : sum local = 1.530067507e-17, global = -1.966023931e-19, cumulative = 2.809281484e-18
DILUPBiCGStab:  Solving for omega, Initial residual = 0.8168369535, Final residual = 6.832182896e-13, No Iterations 2
DILUPBiCGStab:  Solving for k, Initial residual = 0.8181762053, Final residual = 8.589062804e-13, No Iterations 2
ExecutionTime = 10.08 s  ClockTime = 11 s

surfaceFieldValue inMassFlow write:
    total faces   = 1225
    total area    = 3.0625

    sum(inlet) of phi = -3.0625

surfaceFieldValue outMassFlow write:
    total faces   = 1225
    total area    = 3.0625

    sum(outlet) of phi = 3.0625

forces forces_object write:
    Sum of forces
        Total    : (0 0 0)
        Pressure : (0 0 0)
        Viscous  : (0 0 0)
    Sum of moments
        Total    : (0 0 0)
        Pressure : (0 0 0)
        Viscous  : (0 0 0)
    writing force and moment files.

forceCoeffs forceCoeffs_object write:
    Coefficient	Total	Pressure	Viscous	Internal
    Cd:	0	0	0	0
    Cd(f):	0	0	0	0
    Cd(r):	0	0	0	0
    Cl:	0	0	0	0
    Cl(f):	0	0	0	0
    Cl(r):	0	0	0	0
    CmPitch:	0	0	0	0
    CmRoll:	0	0	0	0
    CmYaw:	0	0	0	0
    Cs:	0	0	0	0
    Cs(f):	0	0	0	0
    Cs(r):	0	0	0	0

    writing force and moment coefficient files.

--> FOAM Warning : 
    From virtual bool Foam::functionObjects::fieldSelection::checkSelection()
    in file functionObjects/fieldSelections/fieldSelection/fieldSelection.C at line 166
    Field epsilon not found
fieldMinMax minmaxdomain write:
    min(nut) = 0.0006637227271 in cell 37406 at location (-0.208 0.75 0.75)
    max(nut) = 0.0006666666667 in cell 0 at location (-0.583 -0.85 -0.85)
    min(U) = (1 -1.353956461e-16 -1.126989495e-16) in cell 808 at location (-0.558 -0.5 -0.45)
    max(U) = (1 1.618496231e-16 4.945567251e-17) in cell 226 at location (-0.208 -0.7 -0.85)
    min(k) = 0.009373732176 in cell 42642 at location (0.842 0.75 0.75)
    max(k) = 0.01 in cell 0 at location (-0.583 -0.85 -0.85)
    min(p) = -2.031053982e-14 in cell 488 at location (-0.258 -0.75 -0.6)
    max(p) = 4.212555865e-15 in cell 39595 at location (-0.058 0.75 0.85)
    min(omega) = 14.12296394 in cell 42742 at location (0.942 0.75 0.75)
    max(omega) = 15 in cell 0 at location (-0.583 -0.85 -0.85)

Courant Number mean: 0.4 max: 0.4
deltaT = 0.01
Time = 0.06

inverseDistance : detected 1 mesh regions
    zone:0 nCells:42875  voxels:(35 35 35) bb:(-0.5830030311 -0.8750030311 -0.8750030311) (1.167003031 0.8750030311 0.8750030311)
Overset analysis : nCells : 42875
    calculated   : 42875
    interpolated : 0 (from local:0  mixed local/remote:0  remote:0)
    hole         : 0

Mesh Courant Number mean: 0 max: 0
PIMPLE: iteration 1
DILUPBiCGStab:  Solving for Ux, Initial residual = 0.3882273811, Final residual = 2.617134111e-12, No Iterations 2
DILUPBiCGStab:  Solving for Uy, Initial residual = 0.3188290318, Final residual = 2.170658141e-12, No Iterations 2
DILUPBiCGStab:  Solving for Uz, Initial residual = 0.5373602709, Final residual = 2.205349798e-12, No Iterations 2
DILUPBiCGStab:  Solving for p, Initial residual = 0.4170956114, Final residual = 0.004015077445, No Iterations 25
DILUPBiCGStab:  Solving for p, Initial residual = 0.00483721298, Final residual = 2.949294772e-05, No Iterations 18
DILUPBiCGStab:  Solving for p, Initial residual = 2.489283701e-05, Final residual = 6.537259547e-07, No Iterations 21
time step continuity errors : sum local = 1.501849038e-17, global = 1.621407053e-19, cumulative = 2.971422189e-18
DILUPBiCGStab:  Solving for p, Initial residual = 0.2083307128, Final residual = 0.002067557767, No Iterations 11
DILUPBiCGStab:  Solving for p, Initial residual = 0.002131891722, Final residual = 1.937129141e-05, No Iterations 19
DILUPBiCGStab:  Solving for p, Initial residual = 2.189319841e-05, Final residual = 8.587736252e-07, No Iterations 19
time step continuity errors : sum local = 1.482216408e-17, global = 2.258147631e-19, cumulative = 3.197236952e-18
DILUPBiCGStab:  Solving for p, Initial residual = 0.07102373097, Final residual = 0.0006254885058, No Iterations 21
DILUPBiCGStab:  Solving for p, Initial residual = 0.0007101927544, Final residual = 3.745017268e-06, No Iterations 20
DILUPBiCGStab:  Solving for p, Initial residual = 3.72431366e-06, Final residual = 9.825939312e-07, No Iterations 11
time step continuity errors : sum local = 1.484220566e-17, global = 7.84614624e-20, cumulative = 3.275698415e-18
DILUPBiCGStab:  Solving for omega, Initial residual = 0.739779099, Final residual = 6.310207071e-13, No Iterations 2
DILUPBiCGStab:  Solving for k, Initial residual = 0.7413987528, Final residual = 7.837693512e-13, No Iterations 2
ExecutionTime = 12.27 s  ClockTime = 13 s

surfaceFieldValue inMassFlow write:
    total faces   = 1225
    total area    = 3.0625

    sum(inlet) of phi = -3.0625

surfaceFieldValue outMassFlow write:
    total faces   = 1225
    total area    = 3.0625

    sum(outlet) of phi = 3.0625

forces forces_object write:
    Sum of forces
        Total    : (0 0 0)
        Pressure : (0 0 0)
        Viscous  : (0 0 0)
    Sum of moments
        Total    : (0 0 0)
        Pressure : (0 0 0)
        Viscous  : (0 0 0)
    writing force and moment files.

forceCoeffs forceCoeffs_object write:
    Coefficient	Total	Pressure	Viscous	Internal
    Cd:	0	0	0	0
    Cd(f):	0	0	0	0
    Cd(r):	0	0	0	0
    Cl:	0	0	0	0
    Cl(f):	0	0	0	0
    Cl(r):	0	0	0	0
    CmPitch:	0	0	0	0
    CmRoll:	0	0	0	0
    CmYaw:	0	0	0	0
    Cs:	0	0	0	0
    Cs(f):	0	0	0	0
    Cs(r):	0	0	0	0

    writing force and moment coefficient files.

--> FOAM Warning : 
    From virtual bool Foam::functionObjects::fieldSelection::checkSelection()
    in file functionObjects/fieldSelections/fieldSelection/fieldSelection.C at line 166
    Field epsilon not found
fieldMinMax minmaxdomain write:
    min(nut) = 0.0006631524929 in cell 37406 at location (-0.208 0.75 0.75)
    max(nut) = 0.0006666666667 in cell 0 at location (-0.583 -0.85 -0.85)
    min(U) = (1 -7.679985975e-17 -1.907606086e-16) in cell 8439 at location (1.092 -0.85 -0.7)
    max(U) = (1 1.86762437e-16 1.683577484e-16) in cell 3644 at location (-0.558 -0.4 0)
    min(k) = 0.009257424218 in cell 42827 at location (1.092 0.75 0.75)
    max(k) = 0.01 in cell 0 at location (-0.583 -0.85 -0.85)
    min(p) = -7.245395055e-15 in cell 22793 at location (-0.508 0.2 0.65)
    max(p) = 6.043267995e-15 in cell 11513 at location (0.592 -0.3 -0.55)
    min(omega) = 13.95972155 in cell 42576 at location (0.792 0.75 0.75)
    max(omega) = 15 in cell 0 at location (-0.583 -0.85 -0.85)

Courant Number mean: 0.4 max: 0.4
deltaT = 0.01
Time = 0.07

inverseDistance : detected 1 mesh regions
    zone:0 nCells:42875  voxels:(35 35 35) bb:(-0.5830030311 -0.8750030311 -0.8750030311) (1.167003031 0.8750030311 0.8750030311)
Overset analysis : nCells : 42875
    calculated   : 42875
    interpolated : 0 (from local:0  mixed local/remote:0  remote:0)
    hole         : 0

Mesh Courant Number mean: 0 max: 0
PIMPLE: iteration 1
DILUPBiCGStab:  Solving for Ux, Initial residual = 0.2495425302, Final residual = 2.181149549e-12, No Iterations 2
DILUPBiCGStab:  Solving for Uy, Initial residual = 0.2326897999, Final residual = 1.850585724e-12, No Iterations 2
DILUPBiCGStab:  Solving for Uz, Initial residual = 0.2909699254, Final residual = 1.904926892e-12, No Iterations 2
DILUPBiCGStab:  Solving for p, Initial residual = 0.5276982095, Final residual = 0.00440419431, No Iterations 12
DILUPBiCGStab:  Solving for p, Initial residual = 0.004177258473, Final residual = 2.796688114e-05, No Iterations 21
DILUPBiCGStab:  Solving for p, Initial residual = 2.494139653e-05, Final residual = 4.861842895e-07, No Iterations 22
time step continuity errors : sum local = 1.531881903e-17, global = 6.997910773e-20, cumulative = 3.345677522e-18
DILUPBiCGStab:  Solving for p, Initial residual = 0.1769047517, Final residual = 0.001583713636, No Iterations 11
DILUPBiCGStab:  Solving for p, Initial residual = 0.001572872157, Final residual = 5.389621864e-06, No Iterations 24
DILUPBiCGStab:  Solving for p, Initial residual = 5.189201279e-06, Final residual = 9.950407651e-07, No Iterations 13
time step continuity errors : sum local = 1.513636632e-17, global = 8.91416476e-20, cumulative = 3.43481917e-18
DILUPBiCGStab:  Solving for p, Initial residual = 0.05488797941, Final residual = 0.0005455605475, No Iterations 7
DILUPBiCGStab:  Solving for p, Initial residual = 0.0005464036972, Final residual = 4.582818132e-06, No Iterations 26
DILUPBiCGStab:  Solving for p, Initial residual = 4.660727603e-06, Final residual = 8.15818397e-07, No Iterations 3
time step continuity errors : sum local = 1.506502861e-17, global = 6.405499995e-20, cumulative = 3.49887417e-18
DILUPBiCGStab:  Solving for omega, Initial residual = 0.667459433, Final residual = 5.728157428e-13, No Iterations 2
DILUPBiCGStab:  Solving for k, Initial residual = 0.6691193661, Final residual = 7.234228176e-13, No Iterations 2
ExecutionTime = 13.96 s  ClockTime = 15 s

surfaceFieldValue inMassFlow write:
    total faces   = 1225
    total area    = 3.0625

    sum(inlet) of phi = -3.0625

surfaceFieldValue outMassFlow write:
    total faces   = 1225
    total area    = 3.0625

    sum(outlet) of phi = 3.0625

forces forces_object write:
    Sum of forces
        Total    : (0 0 0)
        Pressure : (0 0 0)
        Viscous  : (0 0 0)
    Sum of moments
        Total    : (0 0 0)
        Pressure : (0 0 0)
        Viscous  : (0 0 0)
    writing force and moment files.

forceCoeffs forceCoeffs_object write:
    Coefficient	Total	Pressure	Viscous	Internal
    Cd:	0	0	0	0
    Cd(f):	0	0	0	0
    Cd(r):	0	0	0	0
    Cl:	0	0	0	0
    Cl(f):	0	0	0	0
    Cl(r):	0	0	0	0
    CmPitch:	0	0	0	0
    CmRoll:	0	0	0	0
    CmYaw:	0	0	0	0
    Cs:	0	0	0	0
    Cs(f):	0	0	0	0
    Cs(r):	0	0	0	0

    writing force and moment coefficient files.

--> FOAM Warning : 
    From virtual bool Foam::functionObjects::fieldSelection::checkSelection()
    in file functionObjects/fieldSelections/fieldSelection/fieldSelection.C at line 166
    Field epsilon not found
fieldMinMax minmaxdomain write:
    min(nut) = 0.0006625881651 in cell 35710 at location (-0.258 0.7 0.7)
    max(nut) = 0.0006666666667 in cell 0 at location (-0.583 -0.85 -0.85)
    min(U) = (1 -9.264387516e-17 -1.790430926e-16) in cell 32 at location (-0.558 -0.75 -0.75)
    max(U) = (1 1.006540264e-16 1.814914375e-16) in cell 13806 at location (-0.558 0.7 -0.3)
    min(k) = 0.009143855802 in cell 42827 at location (1.092 0.75 0.75)
    max(k) = 0.01 in cell 0 at location (-0.583 -0.85 -0.85)
    min(p) = -9.490121208e-15 in cell 9727 at location (-0.408 0.3 -0.3)
    max(p) = 6.014632055e-16 in cell 7772 at location (1.092 -0.75 -0.85)
    min(omega) = 13.80020976 in cell 42742 at location (0.942 0.75 0.75)
    max(omega) = 15 in cell 0 at location (-0.583 -0.85 -0.85)

Courant Number mean: 0.4 max: 0.4
deltaT = 0.01
Time = 0.08

inverseDistance : detected 1 mesh regions
    zone:0 nCells:42875  voxels:(35 35 35) bb:(-0.5830030311 -0.8750030311 -0.8750030311) (1.167003031 0.8750030311 0.8750030311)
Overset analysis : nCells : 42875
    calculated   : 42875
    interpolated : 0 (from local:0  mixed local/remote:0  remote:0)
    hole         : 0

Mesh Courant Number mean: 0 max: 0
PIMPLE: iteration 1
DILUPBiCGStab:  Solving for Ux, Initial residual = 0.2863123185, Final residual = 3.044045961e-12, No Iterations 2
DILUPBiCGStab:  Solving for Uy, Initial residual = 0.1843980738, Final residual = 1.484263945e-12, No Iterations 2
DILUPBiCGStab:  Solving for Uz, Initial residual = 0.2134372219, Final residual = 1.642825427e-12, No Iterations 2
DILUPBiCGStab:  Solving for p, Initial residual = 0.424270524, Final residual = 0.004077152974, No Iterations 6
DILUPBiCGStab:  Solving for p, Initial residual = 0.004034635488, Final residual = 3.656003215e-05, No Iterations 23
DILUPBiCGStab:  Solving for p, Initial residual = 4.320741923e-05, Final residual = 7.731642661e-07, No Iterations 18
time step continuity errors : sum local = 1.47404505e-17, global = -1.6288907e-19, cumulative = 3.3359851e-18
DILUPBiCGStab:  Solving for p, Initial residual = 0.1774156105, Final residual = 0.001771310299, No Iterations 7
DILUPBiCGStab:  Solving for p, Initial residual = 0.001773404701, Final residual = 1.639310754e-05, No Iterations 23
DILUPBiCGStab:  Solving for p, Initial residual = 1.487658232e-05, Final residual = 9.873033064e-07, No Iterations 14
time step continuity errors : sum local = 1.468616712e-17, global = -2.784382691e-19, cumulative = 3.057546831e-18
DILUPBiCGStab:  Solving for p, Initial residual = 0.04897375176, Final residual = 0.0004812877884, No Iterations 7
DILUPBiCGStab:  Solving for p, Initial residual = 0.0004819944238, Final residual = 4.63607167e-06, No Iterations 25
DILUPBiCGStab:  Solving for p, Initial residual = 4.635479962e-06, Final residual = 8.269202213e-07, No Iterations 6
time step continuity errors : sum local = 1.469494318e-17, global = -1.847506386e-19, cumulative = 2.872796192e-18
DILUPBiCGStab:  Solving for omega, Initial residual = 0.6015310255, Final residual = 4.770715048e-13, No Iterations 2
DILUPBiCGStab:  Solving for k, Initial residual = 0.6031609565, Final residual = 6.065102698e-13, No Iterations 2
ExecutionTime = 15.5 s  ClockTime = 16 s

surfaceFieldValue inMassFlow write:
    total faces   = 1225
    total area    = 3.0625

    sum(inlet) of phi = -3.0625

surfaceFieldValue outMassFlow write:
    total faces   = 1225
    total area    = 3.0625

    sum(outlet) of phi = 3.0625

forces forces_object write:
    Sum of forces
        Total    : (0 0 0)
        Pressure : (0 0 0)
        Viscous  : (0 0 0)
    Sum of moments
        Total    : (0 0 0)
        Pressure : (0 0 0)
        Viscous  : (0 0 0)
    writing force and moment files.

forceCoeffs forceCoeffs_object write:
    Coefficient	Total	Pressure	Viscous	Internal
    Cd:	0	0	0	0
    Cd(f):	0	0	0	0
    Cd(r):	0	0	0	0
    Cl:	0	0	0	0
    Cl(f):	0	0	0	0
    Cl(r):	0	0	0	0
    CmPitch:	0	0	0	0
    CmRoll:	0	0	0	0
    CmYaw:	0	0	0	0
    Cs:	0	0	0	0
    Cs(f):	0	0	0	0
    Cs(r):	0	0	0	0

    writing force and moment coefficient files.

--> FOAM Warning : 
    From virtual bool Foam::functionObjects::fieldSelection::checkSelection()
    in file functionObjects/fieldSelections/fieldSelection/fieldSelection.C at line 166
    Field epsilon not found
fieldMinMax minmaxdomain write:
    min(nut) = 0.0006620296282 in cell 35710 at location (-0.258 0.7 0.7)
    max(nut) = 0.0006666666667 in cell 0 at location (-0.583 -0.85 -0.85)
    min(U) = (1 -1.22172541e-16 -2.414149629e-16) in cell 32 at location (-0.558 -0.75 -0.75)
    max(U) = (1 5.162449504e-17 2.278478581e-16) in cell 34409 at location (-0.308 0.85 0.5)
    min(k) = 0.009032932548 in cell 42827 at location (1.092 0.75 0.75)
    max(k) = 0.01 in cell 0 at location (-0.583 -0.85 -0.85)
    min(p) = -6.939862609e-15 in cell 35103 at location (-0.558 0.85 0.8)
    max(p) = 6.843036606e-16 in cell 13001 at location (1.092 -0.4 -0.85)
    min(omega) = 13.64430214 in cell 42742 at location (0.942 0.75 0.75)
    max(omega) = 15 in cell 0 at location (-0.583 -0.85 -0.85)

Courant Number mean: 0.4 max: 0.4
deltaT = 0.01
Time = 0.09

inverseDistance : detected 1 mesh regions
    zone:0 nCells:42875  voxels:(35 35 35) bb:(-0.5830030311 -0.8750030311 -0.8750030311) (1.167003031 0.8750030311 0.8750030311)
Overset analysis : nCells : 42875
    calculated   : 42875
    interpolated : 0 (from local:0  mixed local/remote:0  remote:0)
    hole         : 0

Mesh Courant Number mean: 0 max: 0
PIMPLE: iteration 1
DILUPBiCGStab:  Solving for Ux, Initial residual = 0.2201775617, Final residual = 2.62051258e-12, No Iterations 2
DILUPBiCGStab:  Solving for Uy, Initial residual = 0.1630251536, Final residual = 1.305195095e-12, No Iterations 2
DILUPBiCGStab:  Solving for Uz, Initial residual = 0.1652003952, Final residual = 1.322196314e-12, No Iterations 2
DILUPBiCGStab:  Solving for p, Initial residual = 0.428843117, Final residual = 0.004273662547, No Iterations 10
DILUPBiCGStab:  Solving for p, Initial residual = 0.004432930438, Final residual = 4.363325234e-05, No Iterations 18
DILUPBiCGStab:  Solving for p, Initial residual = 4.526969007e-05, Final residual = 8.299516931e-07, No Iterations 23
time step continuity errors : sum local = 1.460641025e-17, global = -3.794011924e-20, cumulative = 2.834856073e-18
DILUPBiCGStab:  Solving for p, Initial residual = 0.1531667539, Final residual = 0.001487131103, No Iterations 17
DILUPBiCGStab:  Solving for p, Initial residual = 0.001605461149, Final residual = 1.375174852e-05, No Iterations 20
DILUPBiCGStab:  Solving for p, Initial residual = 1.326458291e-05, Final residual = 9.17014542e-07, No Iterations 20
time step continuity errors : sum local = 1.444454552e-17, global = -9.104726483e-20, cumulative = 2.743808808e-18
DILUPBiCGStab:  Solving for p, Initial residual = 0.05196444573, Final residual = 0.0005064869775, No Iterations 9
DILUPBiCGStab:  Solving for p, Initial residual = 0.0005061444093, Final residual = 2.818866663e-06, No Iterations 23
DILUPBiCGStab:  Solving for p, Initial residual = 2.778156962e-06, Final residual = 9.052035095e-07, No Iterations 10
time step continuity errors : sum local = 1.445800984e-17, global = -1.367051394e-19, cumulative = 2.607103669e-18
DILUPBiCGStab:  Solving for omega, Initial residual = 0.5395011949, Final residual = 4.26765424e-13, No Iterations 2
DILUPBiCGStab:  Solving for k, Initial residual = 0.5418570394, Final residual = 5.406555964e-13, No Iterations 2
ExecutionTime = 17.24 s  ClockTime = 18 s

surfaceFieldValue inMassFlow write:
    total faces   = 1225
    total area    = 3.0625

    sum(inlet) of phi = -3.0625

surfaceFieldValue outMassFlow write:
    total faces   = 1225
    total area    = 3.0625

    sum(outlet) of phi = 3.0625

forces forces_object write:
    Sum of forces
        Total    : (0 0 0)
        Pressure : (0 0 0)
        Viscous  : (0 0 0)
    Sum of moments
        Total    : (0 0 0)
        Pressure : (0 0 0)
        Viscous  : (0 0 0)
    writing force and moment files.

forceCoeffs forceCoeffs_object write:
    Coefficient	Total	Pressure	Viscous	Internal
    Cd:	0	0	0	0
    Cd(f):	0	0	0	0
    Cd(r):	0	0	0	0
    Cl:	0	0	0	0
    Cl(f):	0	0	0	0
    Cl(r):	0	0	0	0
    CmPitch:	0	0	0	0
    CmRoll:	0	0	0	0
    CmYaw:	0	0	0	0
    Cs:	0	0	0	0
    Cs(f):	0	0	0	0
    Cs(r):	0	0	0	0

    writing force and moment coefficient files.

--> FOAM Warning : 
    From virtual bool Foam::functionObjects::fieldSelection::checkSelection()
    in file functionObjects/fieldSelections/fieldSelection/fieldSelection.C at line 166
    Field epsilon not found
fieldMinMax minmaxdomain write:
    min(nut) = 0.000661476773 in cell 35710 at location (-0.258 0.7 0.7)
    max(nut) = 0.0006666666667 in cell 0 at location (-0.583 -0.85 -0.85)
    min(U) = (1 -1.842810917e-16 -2.400524473e-16) in cell 32 at location (-0.558 -0.75 -0.75)
    max(U) = (1 6.100095576e-17 2.159897157e-16) in cell 16828 at location (0.242 0.5 -0.7)
    min(k) = 0.008924564329 in cell 42827 at location (1.092 0.75 0.75)
    max(k) = 0.01 in cell 0 at location (-0.583 -0.85 -0.85)
    min(p) = -4.185939264e-15 in cell 612 at location (-0.308 -0.75 -0.5)
    max(p) = 1.065761536e-15 in cell 38516 at location (0.892 0.8 -0.25)
    min(omega) = 13.49187789 in cell 42742 at location (0.942 0.75 0.75)
    max(omega) = 15 in cell 0 at location (-0.583 -0.85 -0.85)

Courant Number mean: 0.4 max: 0.4
deltaT = 0.01
Time = 0.1

inverseDistance : detected 1 mesh regions
    zone:0 nCells:42875  voxels:(35 35 35) bb:(-0.5830030311 -0.8750030311 -0.8750030311) (1.167003031 0.8750030311 0.8750030311)
Overset analysis : nCells : 42875
    calculated   : 42875
    interpolated : 0 (from local:0  mixed local/remote:0  remote:0)
    hole         : 0

Mesh Courant Number mean: 0 max: 0
PIMPLE: iteration 1
DILUPBiCGStab:  Solving for Ux, Initial residual = 0.2646797791, Final residual = 2.308508247e-12, No Iterations 2
DILUPBiCGStab:  Solving for Uy, Initial residual = 0.1543458825, Final residual = 1.231839579e-12, No Iterations 2
DILUPBiCGStab:  Solving for Uz, Initial residual = 0.1563610671, Final residual = 1.235486798e-12, No Iterations 2
DILUPBiCGStab:  Solving for p, Initial residual = 0.469497505, Final residual = 0.004524931763, No Iterations 5
DILUPBiCGStab:  Solving for p, Initial residual = 0.004403775648, Final residual = 2.021752022e-05, No Iterations 27
DILUPBiCGStab:  Solving for p, Initial residual = 1.799573655e-05, Final residual = 7.282333643e-07, No Iterations 16
time step continuity errors : sum local = 1.517254133e-17, global = -2.905395881e-19, cumulative = 2.316564081e-18
DILUPBiCGStab:  Solving for p, Initial residual = 0.1556720186, Final residual = 0.00142323841, No Iterations 7
DILUPBiCGStab:  Solving for p, Initial residual = 0.001440820665, Final residual = 6.891697475e-06, No Iterations 25
DILUPBiCGStab:  Solving for p, Initial residual = 7.380908143e-06, Final residual = 8.534497483e-07, No Iterations 13
time step continuity errors : sum local = 1.467836146e-17, global = -2.127658147e-19, cumulative = 2.103798266e-18
DILUPBiCGStab:  Solving for p, Initial residual = 0.05331023891, Final residual = 0.0005319843405, No Iterations 9
DILUPBiCGStab:  Solving for p, Initial residual = 0.0005344003838, Final residual = 5.192161167e-06, No Iterations 22
DILUPBiCGStab:  Solving for p, Initial residual = 5.304555802e-06, Final residual = 9.77140537e-07, No Iterations 5
time step continuity errors : sum local = 1.461826876e-17, global = -1.896586848e-19, cumulative = 1.914139581e-18
DILUPBiCGStab:  Solving for omega, Initial residual = 0.4792972906, Final residual = 3.559896727e-13, No Iterations 2
DILUPBiCGStab:  Solving for k, Initial residual = 0.4814903132, Final residual = 4.550727422e-13, No Iterations 2
ExecutionTime = 18.96 s  ClockTime = 20 s

surfaceFieldValue inMassFlow write:
    total faces   = 1225
    total area    = 3.0625

    sum(inlet) of phi = -3.0625

surfaceFieldValue outMassFlow write:
    total faces   = 1225
    total area    = 3.0625

    sum(outlet) of phi = 3.0625

forces forces_object write:
    Sum of forces
        Total    : (0 0 0)
        Pressure : (0 0 0)
        Viscous  : (0 0 0)
    Sum of moments
        Total    : (0 0 0)
        Pressure : (0 0 0)
        Viscous  : (0 0 0)
    writing force and moment files.

forceCoeffs forceCoeffs_object write:
    Coefficient	Total	Pressure	Viscous	Internal
    Cd:	0	0	0	0
    Cd(f):	0	0	0	0
    Cd(r):	0	0	0	0
    Cl:	0	0	0	0
    Cl(f):	0	0	0	0
    Cl(r):	0	0	0	0
    CmPitch:	0	0	0	0
    CmRoll:	0	0	0	0
    CmYaw:	0	0	0	0
    Cs:	0	0	0	0
    Cs(f):	0	0	0	0
    Cs(r):	0	0	0	0

    writing force and moment coefficient files.

--> FOAM Warning : 
    From virtual bool Foam::functionObjects::fieldSelection::checkSelection()
    in file functionObjects/fieldSelections/fieldSelection/fieldSelection.C at line 166
    Field epsilon not found
fieldMinMax minmaxdomain write:
    min(nut) = 0.0006609294691 in cell 35710 at location (-0.258 0.7 0.7)
    max(nut) = 0.0006666666667 in cell 0 at location (-0.583 -0.85 -0.85)
    min(U) = (1 -1.994920482e-16 -2.048520177e-16) in cell 32 at location (-0.558 -0.75 -0.75)
    max(U) = (1 1.444334212e-16 1.708260846e-16) in cell 534 at location (-0.508 -0.3 -0.8)
    min(k) = 0.008818665042 in cell 42827 at location (1.092 0.75 0.75)
    max(k) = 0.01 in cell 0 at location (-0.583 -0.85 -0.85)
    min(p) = -5.60449313e-15 in cell 14380 at location (-0.108 0.85 -0.85)
    max(p) = 6.629656791e-16 in cell 37547 at location (0.942 0.35 0.05)
    min(omega) = 13.34282156 in cell 42742 at location (0.942 0.75 0.75)
    max(omega) = 15 in cell 0 at location (-0.583 -0.85 -0.85)

Courant Number mean: 0.4 max: 0.4
deltaT = 0.01
Time = 0.11

inverseDistance : detected 1 mesh regions
    zone:0 nCells:42875  voxels:(35 35 35) bb:(-0.5830030311 -0.8750030311 -0.8750030311) (1.167003031 0.8750030311 0.8750030311)
Overset analysis : nCells : 42875
    calculated   : 42875
    interpolated : 0 (from local:0  mixed local/remote:0  remote:0)
    hole         : 0

Mesh Courant Number mean: 0 max: 0
PIMPLE: iteration 1
DILUPBiCGStab:  Solving for Ux, Initial residual = 0.2234249658, Final residual = 1.777000378e-12, No Iterations 2
DILUPBiCGStab:  Solving for Uy, Initial residual = 0.1436659292, Final residual = 1.094833615e-12, No Iterations 2
DILUPBiCGStab:  Solving for Uz, Initial residual = 0.1535071947, Final residual = 1.216912364e-12, No Iterations 2
DILUPBiCGStab:  Solving for p, Initial residual = 0.4500604083, Final residual = 0.004283345793, No Iterations 6
DILUPBiCGStab:  Solving for p, Initial residual = 0.00423638316, Final residual = 4.177323822e-05, No Iterations 24
DILUPBiCGStab:  Solving for p, Initial residual = 4.481384628e-05, Final residual = 7.308243628e-07, No Iterations 19
time step continuity errors : sum local = 1.502348908e-17, global = -1.572694153e-19, cumulative = 1.756870166e-18
DILUPBiCGStab:  Solving for p, Initial residual = 0.1650132365, Final residual = 0.001614946741, No Iterations 6
DILUPBiCGStab:  Solving for p, Initial residual = 0.001625061297, Final residual = 1.442182668e-05, No Iterations 15
DILUPBiCGStab:  Solving for p, Initial residual = 1.440462199e-05, Final residual = 9.941836618e-07, No Iterations 19
time step continuity errors : sum local = 1.490042623e-17, global = -7.397039829e-20, cumulative = 1.682899768e-18
DILUPBiCGStab:  Solving for p, Initial residual = 0.05269594711, Final residual = 0.0005243780226, No Iterations 19
DILUPBiCGStab:  Solving for p, Initial residual = 0.0005160177183, Final residual = 3.407527494e-06, No Iterations 21
DILUPBiCGStab:  Solving for p, Initial residual = 3.37278294e-06, Final residual = 9.572291186e-07, No Iterations 11
time step continuity errors : sum local = 1.489343083e-17, global = -1.362032309e-19, cumulative = 1.546696537e-18
DILUPBiCGStab:  Solving for omega, Initial residual = 0.427460416, Final residual = 2.846939397e-13, No Iterations 2
DILUPBiCGStab:  Solving for k, Initial residual = 0.4293818082, Final residual = 3.656785986e-13, No Iterations 2
ExecutionTime = 21.12 s  ClockTime = 22 s

surfaceFieldValue inMassFlow write:
    total faces   = 1225
    total area    = 3.0625

    sum(inlet) of phi = -3.0625

surfaceFieldValue outMassFlow write:
    total faces   = 1225
    total area    = 3.0625

    sum(outlet) of phi = 3.0625

forces forces_object write:
    Sum of forces
        Total    : (0 0 0)
        Pressure : (0 0 0)
        Viscous  : (0 0 0)
    Sum of moments
        Total    : (0 0 0)
        Pressure : (0 0 0)
        Viscous  : (0 0 0)
    writing force and moment files.

forceCoeffs forceCoeffs_object write:
    Coefficient	Total	Pressure	Viscous	Internal
    Cd:	0	0	0	0
    Cd(f):	0	0	0	0
    Cd(r):	0	0	0	0
    Cl:	0	0	0	0
    Cl(f):	0	0	0	0
    Cl(r):	0	0	0	0
    CmPitch:	0	0	0	0
    CmRoll:	0	0	0	0
    CmYaw:	0	0	0	0
    Cs:	0	0	0	0
    Cs(f):	0	0	0	0
    Cs(r):	0	0	0	0

    writing force and moment coefficient files.

--> FOAM Warning : 
    From virtual bool Foam::functionObjects::fieldSelection::checkSelection()
    in file functionObjects/fieldSelections/fieldSelection/fieldSelection.C at line 166
    Field epsilon not found
fieldMinMax minmaxdomain write:
    min(nut) = 0.0006603876227 in cell 35710 at location (-0.258 0.7 0.7)
    max(nut) = 0.0006666666667 in cell 0 at location (-0.583 -0.85 -0.85)
    min(U) = (1 -1.845996219e-16 -3.413153523e-16) in cell 18088 at location (-0.308 0.85 -0.45)
    max(U) = (1 1.457374409e-16 1.92547965e-16) in cell 34409 at location (-0.308 0.85 0.5)
    min(k) = 0.008715152384 in cell 42697 at location (0.892 0.75 0.75)
    max(k) = 0.01 in cell 0 at location (-0.583 -0.85 -0.85)
    min(p) = -4.477692439e-15 in cell 6449 at location (-0.458 0.65 -0.85)
    max(p) = 8.699358485e-16 in cell 18415 at location (0.692 -0.15 -0.4)
    min(omega) = 13.19702275 in cell 42697 at location (0.892 0.75 0.75)
    max(omega) = 15 in cell 0 at location (-0.583 -0.85 -0.85)

Courant Number mean: 0.4 max: 0.4
deltaT = 0.01
Time = 0.12

inverseDistance : detected 1 mesh regions
    zone:0 nCells:42875  voxels:(35 35 35) bb:(-0.5830030311 -0.8750030311 -0.8750030311) (1.167003031 0.8750030311 0.8750030311)
Overset analysis : nCells : 42875
    calculated   : 42875
    interpolated : 0 (from local:0  mixed local/remote:0  remote:0)
    hole         : 0

Mesh Courant Number mean: 0 max: 0
PIMPLE: iteration 1
DILUPBiCGStab:  Solving for Ux, Initial residual = 0.2355577562, Final residual = 2.533105469e-12, No Iterations 2
DILUPBiCGStab:  Solving for Uy, Initial residual = 0.1396647028, Final residual = 1.069163819e-12, No Iterations 2
DILUPBiCGStab:  Solving for Uz, Initial residual = 0.1355529244, Final residual = 1.04032305e-12, No Iterations 2
DILUPBiCGStab:  Solving for p, Initial residual = 0.4793332059, Final residual = 0.004695164629, No Iterations 5
DILUPBiCGStab:  Solving for p, Initial residual = 0.00465062543, Final residual = 3.991670211e-05, No Iterations 27
DILUPBiCGStab:  Solving for p, Initial residual = 4.101764057e-05, Final residual = 3.800680989e-07, No Iterations 20
time step continuity errors : sum local = 1.54176207e-17, global = -7.787363447e-20, cumulative = 1.468822902e-18
DILUPBiCGStab:  Solving for p, Initial residual = 0.1737123285, Final residual = 0.001577000497, No Iterations 8
DILUPBiCGStab:  Solving for p, Initial residual = 0.001594665075, Final residual = 1.236541364e-05, No Iterations 24
DILUPBiCGStab:  Solving for p, Initial residual = 1.195785662e-05, Final residual = 7.176830792e-07, No Iterations 15
time step continuity errors : sum local = 1.491109775e-17, global = -7.59826053e-20, cumulative = 1.392840297e-18
DILUPBiCGStab:  Solving for p, Initial residual = 0.05464108434, Final residual = 0.0004910115015, No Iterations 9
DILUPBiCGStab:  Solving for p, Initial residual = 0.0004927721274, Final residual = 2.282153891e-06, No Iterations 24
DILUPBiCGStab:  Solving for p, Initial residual = 2.325425099e-06, Final residual = 8.208257537e-07, No Iterations 7
time step continuity errors : sum local = 1.493279278e-17, global = -1.098404816e-19, cumulative = 1.282999815e-18
DILUPBiCGStab:  Solving for omega, Initial residual = 0.3821599656, Final residual = 2.296992391e-13, No Iterations 2
DILUPBiCGStab:  Solving for k, Initial residual = 0.3840947549, Final residual = 2.89790214e-13, No Iterations 2
ExecutionTime = 23.01 s  ClockTime = 24 s

surfaceFieldValue inMassFlow write:
    total faces   = 1225
    total area    = 3.0625

    sum(inlet) of phi = -3.0625

surfaceFieldValue outMassFlow write:
    total faces   = 1225
    total area    = 3.0625

    sum(outlet) of phi = 3.0625

forces forces_object write:
    Sum of forces
        Total    : (0 0 0)
        Pressure : (0 0 0)
        Viscous  : (0 0 0)
    Sum of moments
        Total    : (0 0 0)
        Pressure : (0 0 0)
        Viscous  : (0 0 0)
    writing force and moment files.

forceCoeffs forceCoeffs_object write:
    Coefficient	Total	Pressure	Viscous	Internal
    Cd:	0	0	0	0
    Cd(f):	0	0	0	0
    Cd(r):	0	0	0	0
    Cl:	0	0	0	0
    Cl(f):	0	0	0	0
    Cl(r):	0	0	0	0
    CmPitch:	0	0	0	0
    CmRoll:	0	0	0	0
    CmYaw:	0	0	0	0
    Cs:	0	0	0	0
    Cs(f):	0	0	0	0
    Cs(r):	0	0	0	0

    writing force and moment coefficient files.

--> FOAM Warning : 
    From virtual bool Foam::functionObjects::fieldSelection::checkSelection()
    in file functionObjects/fieldSelections/fieldSelection/fieldSelection.C at line 166
    Field epsilon not found
fieldMinMax minmaxdomain write:
    min(nut) = 0.0006598511285 in cell 35710 at location (-0.258 0.7 0.7)
    max(nut) = 0.0006666666667 in cell 0 at location (-0.583 -0.85 -0.85)
    min(U) = (1 -1.658192516e-16 -2.135743535e-16) in cell 878 at location (-0.258 -0.7 -0.5)
    max(U) = (1 2.227359124e-16 1.920009415e-16) in cell 13806 at location (-0.558 0.7 -0.3)
    min(k) = 0.008613947645 in cell 41893 at location (0.492 0.75 0.75)
    max(k) = 0.01 in cell 0 at location (-0.583 -0.85 -0.85)
    min(p) = -2.821680435e-15 in cell 36329 at location (-0.508 0.85 0.85)
    max(p) = 2.658012278e-15 in cell 23471 at location (0.042 -0.5 0.85)
    min(omega) = 13.05437583 in cell 42697 at location (0.892 0.75 0.75)
    max(omega) = 15 in cell 0 at location (-0.583 -0.85 -0.85)

Courant Number mean: 0.4 max: 0.4
deltaT = 0.01
Time = 0.13

inverseDistance : detected 1 mesh regions
    zone:0 nCells:42875  voxels:(35 35 35) bb:(-0.5830030311 -0.8750030311 -0.8750030311) (1.167003031 0.8750030311 0.8750030311)
Overset analysis : nCells : 42875
    calculated   : 42875
    interpolated : 0 (from local:0  mixed local/remote:0  remote:0)
    hole         : 0

Mesh Courant Number mean: 0 max: 0
PIMPLE: iteration 1
DILUPBiCGStab:  Solving for Ux, Initial residual = 0.2200780759, Final residual = 1.90814267e-12, No Iterations 2
DILUPBiCGStab:  Solving for Uy, Initial residual = 0.1363610896, Final residual = 1.0713099e-12, No Iterations 2
DILUPBiCGStab:  Solving for Uz, Initial residual = 0.1331531452, Final residual = 1.04541382e-12, No Iterations 2
DILUPBiCGStab:  Solving for p, Initial residual = 0.4925353507, Final residual = 0.004642518696, No Iterations 6
DILUPBiCGStab:  Solving for p, Initial residual = 0.004628065513, Final residual = 2.935080324e-05, No Iterations 26
DILUPBiCGStab:  Solving for p, Initial residual = 2.90761732e-05, Final residual = 9.761220521e-07, No Iterations 14
time step continuity errors : sum local = 1.49665397e-17, global = 1.714004382e-19, cumulative = 1.454400254e-18
DILUPBiCGStab:  Solving for p, Initial residual = 0.1653025516, Final residual = 0.001599902224, No Iterations 7
DILUPBiCGStab:  Solving for p, Initial residual = 0.001612573499, Final residual = 1.392374236e-05, No Iterations 24
DILUPBiCGStab:  Solving for p, Initial residual = 1.428160501e-05, Final residual = 9.831772637e-07, No Iterations 17
time step continuity errors : sum local = 1.486215454e-17, global = -6.724401921e-20, cumulative = 1.387156234e-18
DILUPBiCGStab:  Solving for p, Initial residual = 0.0536508341, Final residual = 0.0005253081432, No Iterations 22
DILUPBiCGStab:  Solving for p, Initial residual = 0.0005014937405, Final residual = 1.809419249e-06, No Iterations 18
DILUPBiCGStab:  Solving for p, Initial residual = 1.780443699e-06, Final residual = 9.558325188e-07, No Iterations 3
time step continuity errors : sum local = 1.491902512e-17, global = 4.168705568e-20, cumulative = 1.42884329e-18
DILUPBiCGStab:  Solving for omega, Initial residual = 0.3424527272, Final residual = 2.086009796e-13, No Iterations 2
DILUPBiCGStab:  Solving for k, Initial residual = 0.3441860177, Final residual = 2.647100428e-13, No Iterations 2
ExecutionTime = 24.91 s  ClockTime = 26 s

surfaceFieldValue inMassFlow write:
    total faces   = 1225
    total area    = 3.0625

    sum(inlet) of phi = -3.0625

surfaceFieldValue outMassFlow write:
    total faces   = 1225
    total area    = 3.0625

    sum(outlet) of phi = 3.0625

forces forces_object write:
    Sum of forces
        Total    : (0 0 0)
        Pressure : (0 0 0)
        Viscous  : (0 0 0)
    Sum of moments
        Total    : (0 0 0)
        Pressure : (0 0 0)
        Viscous  : (0 0 0)
    writing force and moment files.

forceCoeffs forceCoeffs_object write:
    Coefficient	Total	Pressure	Viscous	Internal
    Cd:	0	0	0	0
    Cd(f):	0	0	0	0
    Cd(r):	0	0	0	0
    Cl:	0	0	0	0
    Cl(f):	0	0	0	0
    Cl(r):	0	0	0	0
    CmPitch:	0	0	0	0
    CmRoll:	0	0	0	0
    CmYaw:	0	0	0	0
    Cs:	0	0	0	0
    Cs(f):	0	0	0	0
    Cs(r):	0	0	0	0

    writing force and moment coefficient files.

--> FOAM Warning : 
    From virtual bool Foam::functionObjects::fieldSelection::checkSelection()
    in file functionObjects/fieldSelections/fieldSelection/fieldSelection.C at line 166
    Field epsilon not found
fieldMinMax minmaxdomain write:
    min(nut) = 0.0006593197638 in cell 35710 at location (-0.258 0.7 0.7)
    max(nut) = 0.0006666666667 in cell 0 at location (-0.583 -0.85 -0.85)
    min(U) = (1 -2.408287588e-16 -1.901044741e-16) in cell 1429 at location (-0.258 -0.6 -0.45)
    max(U) = (1 1.739354032e-17 1.536434328e-16) in cell 8808 at location (-0.108 0.5 -0.85)
    min(k) = 0.008514975516 in cell 41893 at location (0.492 0.75 0.75)
    max(k) = 0.01 in cell 0 at location (-0.583 -0.85 -0.85)
    min(p) = -1.825512447e-15 in cell 42864 at location (0.992 0.85 0.85)
    max(p) = 4.800851422e-15 in cell 23727 at location (-0.558 0.2 0.75)
    min(omega) = 12.91477967 in cell 42697 at location (0.892 0.75 0.75)
    max(omega) = 15 in cell 0 at location (-0.583 -0.85 -0.85)

Courant Number mean: 0.4 max: 0.4
deltaT = 0.01
Time = 0.14

inverseDistance : detected 1 mesh regions
    zone:0 nCells:42875  voxels:(35 35 35) bb:(-0.5830030311 -0.8750030311 -0.8750030311) (1.167003031 0.8750030311 0.8750030311)
Overset analysis : nCells : 42875
    calculated   : 42875
    interpolated : 0 (from local:0  mixed local/remote:0  remote:0)
    hole         : 0

Mesh Courant Number mean: 0 max: 0
PIMPLE: iteration 1
DILUPBiCGStab:  Solving for Ux, Initial residual = 0.2039726132, Final residual = 1.797611125e-12, No Iterations 2
DILUPBiCGStab:  Solving for Uy, Initial residual = 0.134222157, Final residual = 1.058413106e-12, No Iterations 2
DILUPBiCGStab:  Solving for Uz, Initial residual = 0.1317147294, Final residual = 1.033530827e-12, No Iterations 2
DILUPBiCGStab:  Solving for p, Initial residual = 0.4687302652, Final residual = 0.004470335242, No Iterations 18
DILUPBiCGStab:  Solving for p, Initial residual = 0.003983423733, Final residual = 1.507082297e-05, No Iterations 20
DILUPBiCGStab:  Solving for p, Initial residual = 1.308949863e-05, Final residual = 9.760488557e-07, No Iterations 15
time step continuity errors : sum local = 1.616605099e-17, global = -4.905849677e-19, cumulative = 9.382583224e-19
DILUPBiCGStab:  Solving for p, Initial residual = 0.1372105426, Final residual = 0.001256509557, No Iterations 19
DILUPBiCGStab:  Solving for p, Initial residual = 0.001612499825, Final residual = 1.156915553e-05, No Iterations 21
DILUPBiCGStab:  Solving for p, Initial residual = 1.188583875e-05, Final residual = 9.901982327e-07, No Iterations 14
time step continuity errors : sum local = 1.503915414e-17, global = -2.558830783e-19, cumulative = 6.823752441e-19
DILUPBiCGStab:  Solving for p, Initial residual = 0.06871189374, Final residual = 0.0006567916127, No Iterations 15
DILUPBiCGStab:  Solving for p, Initial residual = 0.0006379927538, Final residual = 5.337933401e-06, No Iterations 23
DILUPBiCGStab:  Solving for p, Initial residual = 5.215908319e-06, Final residual = 9.806391229e-07, No Iterations 4
time step continuity errors : sum local = 1.505125057e-17, global = -2.556629581e-19, cumulative = 4.267122859e-19
DILUPBiCGStab:  Solving for omega, Initial residual = 0.3066635831, Final residual = 1.795436734e-13, No Iterations 2
DILUPBiCGStab:  Solving for k, Initial residual = 0.3086132499, Final residual = 2.294161608e-13, No Iterations 2
ExecutionTime = 26.76 s  ClockTime = 28 s

surfaceFieldValue inMassFlow write:
    total faces   = 1225
    total area    = 3.0625

    sum(inlet) of phi = -3.0625

surfaceFieldValue outMassFlow write:
    total faces   = 1225
    total area    = 3.0625

    sum(outlet) of phi = 3.0625

forces forces_object write:
    Sum of forces
        Total    : (0 0 0)
        Pressure : (0 0 0)
        Viscous  : (0 0 0)
    Sum of moments
        Total    : (0 0 0)
        Pressure : (0 0 0)
        Viscous  : (0 0 0)
    writing force and moment files.

forceCoeffs forceCoeffs_object write:
    Coefficient	Total	Pressure	Viscous	Internal
    Cd:	0	0	0	0
    Cd(f):	0	0	0	0
    Cd(r):	0	0	0	0
    Cl:	0	0	0	0
    Cl(f):	0	0	0	0
    Cl(r):	0	0	0	0
    CmPitch:	0	0	0	0
    CmRoll:	0	0	0	0
    CmYaw:	0	0	0	0
    Cs:	0	0	0	0
    Cs(f):	0	0	0	0
    Cs(r):	0	0	0	0

    writing force and moment coefficient files.

--> FOAM Warning : 
    From virtual bool Foam::functionObjects::fieldSelection::checkSelection()
    in file functionObjects/fieldSelections/fieldSelection/fieldSelection.C at line 166
    Field epsilon not found
fieldMinMax minmaxdomain write:
    min(nut) = 0.0006587934948 in cell 35710 at location (-0.258 0.7 0.7)
    max(nut) = 0.0006666666667 in cell 0 at location (-0.583 -0.85 -0.85)
    min(U) = (1 -3.776192818e-16 -2.470885181e-16) in cell 11409 at location (0.942 -0.35 -0.85)
    max(U) = (1 8.118473069e-17 1.212014779e-16) in cell 2647 at location (0.192 -0.5 -0.75)
    min(k) = 0.008418163906 in cell 41893 at location (0.492 0.75 0.75)
    max(k) = 0.01 in cell 0 at location (-0.583 -0.85 -0.85)
    min(p) = -7.554834159e-15 in cell 36890 at location (-0.458 0.85 0.85)
    max(p) = 1.324805302e-15 in cell 2930 at location (0.592 -0.85 -0.75)
    min(omega) = 12.77813746 in cell 42742 at location (0.942 0.75 0.75)
    max(omega) = 15 in cell 0 at location (-0.583 -0.85 -0.85)

Courant Number mean: 0.4 max: 0.4
deltaT = 0.01
Time = 0.15

inverseDistance : detected 1 mesh regions
    zone:0 nCells:42875  voxels:(35 35 35) bb:(-0.5830030311 -0.8750030311 -0.8750030311) (1.167003031 0.8750030311 0.8750030311)
Overset analysis : nCells : 42875
    calculated   : 42875
    interpolated : 0 (from local:0  mixed local/remote:0  remote:0)
    hole         : 0

Mesh Courant Number mean: 0 max: 0
PIMPLE: iteration 1
DILUPBiCGStab:  Solving for Ux, Initial residual = 0.2053192661, Final residual = 1.62921817e-12, No Iterations 2
DILUPBiCGStab:  Solving for Uy, Initial residual = 0.1290208474, Final residual = 1.009631117e-12, No Iterations 2
DILUPBiCGStab:  Solving for Uz, Initial residual = 0.1361989536, Final residual = 1.081884195e-12, No Iterations 2
DILUPBiCGStab:  Solving for p, Initial residual = 0.4538402575, Final residual = 0.004337398372, No Iterations 19
DILUPBiCGStab:  Solving for p, Initial residual = 0.003191927441, Final residual = 1.115127299e-05, No Iterations 20
DILUPBiCGStab:  Solving for p, Initial residual = 1.04358136e-05, Final residual = 9.737201991e-07, No Iterations 16
time step continuity errors : sum local = 1.668238434e-17, global = 4.839095666e-19, cumulative = 9.106218525e-19
DILUPBiCGStab:  Solving for p, Initial residual = 0.1211531276, Final residual = 0.001003564732, No Iterations 18
DILUPBiCGStab:  Solving for p, Initial residual = 0.001155825069, Final residual = 8.64827674e-06, No Iterations 21
DILUPBiCGStab:  Solving for p, Initial residual = 8.887304849e-06, Final residual = 8.704742447e-07, No Iterations 16
time step continuity errors : sum local = 1.608133985e-17, global = 3.791835216e-19, cumulative = 1.289805374e-18
DILUPBiCGStab:  Solving for p, Initial residual = 0.05117091289, Final residual = 0.0005106477968, No Iterations 16
DILUPBiCGStab:  Solving for p, Initial residual = 0.0004979980121, Final residual = 4.864952489e-06, No Iterations 20
DILUPBiCGStab:  Solving for p, Initial residual = 4.763426382e-06, Final residual = 9.334630052e-07, No Iterations 8
time step continuity errors : sum local = 1.630031779e-17, global = 3.798880772e-19, cumulative = 1.669693451e-18
DILUPBiCGStab:  Solving for omega, Initial residual = 0.2747734175, Final residual = 1.499265208e-13, No Iterations 2
DILUPBiCGStab:  Solving for k, Initial residual = 0.2764762549, Final residual = 1.924944283e-13, No Iterations 2
ExecutionTime = 28.68 s  ClockTime = 30 s

surfaceFieldValue inMassFlow write:
    total faces   = 1225
    total area    = 3.0625

    sum(inlet) of phi = -3.0625

surfaceFieldValue outMassFlow write:
    total faces   = 1225
    total area    = 3.0625

    sum(outlet) of phi = 3.0625

forces forces_object write:
    Sum of forces
        Total    : (0 0 0)
        Pressure : (0 0 0)
        Viscous  : (0 0 0)
    Sum of moments
        Total    : (0 0 0)
        Pressure : (0 0 0)
        Viscous  : (0 0 0)
    writing force and moment files.

forceCoeffs forceCoeffs_object write:
    Coefficient	Total	Pressure	Viscous	Internal
    Cd:	0	0	0	0
    Cd(f):	0	0	0	0
    Cd(r):	0	0	0	0
    Cl:	0	0	0	0
    Cl(f):	0	0	0	0
    Cl(r):	0	0	0	0
    CmPitch:	0	0	0	0
    CmRoll:	0	0	0	0
    CmYaw:	0	0	0	0
    Cs:	0	0	0	0
    Cs(f):	0	0	0	0
    Cs(r):	0	0	0	0

    writing force and moment coefficient files.

--> FOAM Warning : 
    From virtual bool Foam::functionObjects::fieldSelection::checkSelection()
    in file functionObjects/fieldSelections/fieldSelection/fieldSelection.C at line 166
    Field epsilon not found
fieldMinMax minmaxdomain write:
    min(nut) = 0.0006582722189 in cell 35710 at location (-0.258 0.7 0.7)
    max(nut) = 0.0006666666667 in cell 0 at location (-0.583 -0.85 -0.85)
    min(U) = (1 -2.781953675e-16 -2.078751791e-16) in cell 1429 at location (-0.258 -0.6 -0.45)
    max(U) = (1 2.04744044e-16 2.15085839e-16) in cell 24282 at location (0.192 0.75 -0.5)
    min(k) = 0.008323443775 in cell 42046 at location (0.542 0.75 0.75)
    max(k) = 0.01 in cell 0 at location (-0.583 -0.85 -0.85)
    min(p) = -5.023683227e-16 in cell 40868 at location (1.142 0 0.65)
    max(p) = 1.168984296e-14 in cell 26424 at location (-0.558 0.85 0.25)
    min(omega) = 12.6443564 in cell 42742 at location (0.942 0.75 0.75)
    max(omega) = 15 in cell 0 at location (-0.583 -0.85 -0.85)

Courant Number mean: 0.4 max: 0.4
deltaT = 0.01
Time = 0.16

inverseDistance : detected 1 mesh regions
    zone:0 nCells:42875  voxels:(35 35 35) bb:(-0.5830030311 -0.8750030311 -0.8750030311) (1.167003031 0.8750030311 0.8750030311)
Overset analysis : nCells : 42875
    calculated   : 42875
    interpolated : 0 (from local:0  mixed local/remote:0  remote:0)
    hole         : 0

Mesh Courant Number mean: 0 max: 0
PIMPLE: iteration 1
DILUPBiCGStab:  Solving for Ux, Initial residual = 0.1964300752, Final residual = 1.646258474e-12, No Iterations 2
DILUPBiCGStab:  Solving for Uy, Initial residual = 0.1232007701, Final residual = 9.535018218e-13, No Iterations 2
DILUPBiCGStab:  Solving for Uz, Initial residual = 0.1217699961, Final residual = 9.402373897e-13, No Iterations 2
DILUPBiCGStab:  Solving for p, Initial residual = 0.3599098005, Final residual = 0.003490641367, No Iterations 17
DILUPBiCGStab:  Solving for p, Initial residual = 0.004845871709, Final residual = 2.592261209e-05, No Iterations 22
DILUPBiCGStab:  Solving for p, Initial residual = 2.384100604e-05, Final residual = 9.906773562e-07, No Iterations 15
time step continuity errors : sum local = 1.527709045e-17, global = 1.802213873e-19, cumulative = 1.849914839e-18
DILUPBiCGStab:  Solving for p, Initial residual = 0.149714137, Final residual = 0.001417173566, No Iterations 6
DILUPBiCGStab:  Solving for p, Initial residual = 0.001426476197, Final residual = 1.394930317e-05, No Iterations 22
DILUPBiCGStab:  Solving for p, Initial residual = 1.440478698e-05, Final residual = 9.728276499e-07, No Iterations 18
time step continuity errors : sum local = 1.504931098e-17, global = 2.009313817e-19, cumulative = 2.05084622e-18
DILUPBiCGStab:  Solving for p, Initial residual = 0.04792879284, Final residual = 0.000476005688, No Iterations 7
DILUPBiCGStab:  Solving for p, Initial residual = 0.0004768299361, Final residual = 3.06171201e-06, No Iterations 25
DILUPBiCGStab:  Solving for p, Initial residual = 3.10265749e-06, Final residual = 7.985543973e-07, No Iterations 10
time step continuity errors : sum local = 1.500580979e-17, global = 2.037762262e-19, cumulative = 2.254622446e-18
DILUPBiCGStab:  Solving for omega, Initial residual = 0.2474365191, Final residual = 1.268514807e-13, No Iterations 2
DILUPBiCGStab:  Solving for k, Initial residual = 0.2489094113, Final residual = 1.595358672e-13, No Iterations 2
ExecutionTime = 30.43 s  ClockTime = 32 s

surfaceFieldValue inMassFlow write:
    total faces   = 1225
    total area    = 3.0625

    sum(inlet) of phi = -3.0625

surfaceFieldValue outMassFlow write:
    total faces   = 1225
    total area    = 3.0625

    sum(outlet) of phi = 3.0625

forces forces_object write:
    Sum of forces
        Total    : (0 0 0)
        Pressure : (0 0 0)
        Viscous  : (0 0 0)
    Sum of moments
        Total    : (0 0 0)
        Pressure : (0 0 0)
        Viscous  : (0 0 0)
    writing force and moment files.

forceCoeffs forceCoeffs_object write:
    Coefficient	Total	Pressure	Viscous	Internal
    Cd:	0	0	0	0
    Cd(f):	0	0	0	0
    Cd(r):	0	0	0	0
    Cl:	0	0	0	0
    Cl(f):	0	0	0	0
    Cl(r):	0	0	0	0
    CmPitch:	0	0	0	0
    CmRoll:	0	0	0	0
    CmYaw:	0	0	0	0
    Cs:	0	0	0	0
    Cs(f):	0	0	0	0
    Cs(r):	0	0	0	0

    writing force and moment coefficient files.

--> FOAM Warning : 
    From virtual bool Foam::functionObjects::fieldSelection::checkSelection()
    in file functionObjects/fieldSelections/fieldSelection/fieldSelection.C at line 166
    Field epsilon not found
fieldMinMax minmaxdomain write:
    min(nut) = 0.0006577558376 in cell 32217 at location (-0.258 0.6 0.55)
    max(nut) = 0.0006666666667 in cell 0 at location (-0.583 -0.85 -0.85)
    min(U) = (1 -2.839428396e-16 -2.135399816e-16) in cell 3698 at location (0.392 -0.85 -0.45)
    max(U) = (1 1.132421465e-17 1.701079692e-16) in cell 18821 at location (0.042 -0.5 0.6)
    min(k) = 0.008230748975 in cell 42868 at location (1.092 0.85 0.8)
    max(k) = 0.01 in cell 0 at location (-0.583 -0.85 -0.85)
    min(p) = -5.32892118e-15 in cell 6512 at location (-0.558 0.75 -0.85)
    max(p) = 2.139658838e-15 in cell 30925 at location (0.842 -0.85 0.85)
    min(omega) = 12.51334757 in cell 42869 at location (1.092 0.8 0.85)
    max(omega) = 15 in cell 0 at location (-0.583 -0.85 -0.85)

Courant Number mean: 0.4 max: 0.4
deltaT = 0.01
Time = 0.17

inverseDistance : detected 1 mesh regions
    zone:0 nCells:42875  voxels:(35 35 35) bb:(-0.5830030311 -0.8750030311 -0.8750030311) (1.167003031 0.8750030311 0.8750030311)
Overset analysis : nCells : 42875
    calculated   : 42875
    interpolated : 0 (from local:0  mixed local/remote:0  remote:0)
    hole         : 0

Mesh Courant Number mean: 0 max: 0
PIMPLE: iteration 1
DILUPBiCGStab:  Solving for Ux, Initial residual = 0.1891964632, Final residual = 1.662817699e-12, No Iterations 2
DILUPBiCGStab:  Solving for Uy, Initial residual = 0.1211825061, Final residual = 9.286608863e-13, No Iterations 2
DILUPBiCGStab:  Solving for Uz, Initial residual = 0.1206308668, Final residual = 9.335639778e-13, No Iterations 2
DILUPBiCGStab:  Solving for p, Initial residual = 0.4698328798, Final residual = 0.004171344555, No Iterations 6
DILUPBiCGStab:  Solving for p, Initial residual = 0.004182169096, Final residual = 3.661485753e-05, No Iterations 26
DILUPBiCGStab:  Solving for p, Initial residual = 3.636955239e-05, Final residual = 9.973770966e-07, No Iterations 13
time step continuity errors : sum local = 1.500077294e-17, global = 3.019275135e-20, cumulative = 2.284815198e-18
DILUPBiCGStab:  Solving for p, Initial residual = 0.1541640204, Final residual = 0.001427416607, No Iterations 7
DILUPBiCGStab:  Solving for p, Initial residual = 0.001423449627, Final residual = 1.415126829e-05, No Iterations 24
DILUPBiCGStab:  Solving for p, Initial residual = 1.370554196e-05, Final residual = 6.66582391e-07, No Iterations 16
time step continuity errors : sum local = 1.481313308e-17, global = 8.850298846e-20, cumulative = 2.373318186e-18
DILUPBiCGStab:  Solving for p, Initial residual = 0.04801883317, Final residual = 0.0004757002066, No Iterations 6
DILUPBiCGStab:  Solving for p, Initial residual = 0.0004764747691, Final residual = 4.392865194e-06, No Iterations 23
DILUPBiCGStab:  Solving for p, Initial residual = 4.346837349e-06, Final residual = 6.005257085e-07, No Iterations 14
time step continuity errors : sum local = 1.494340587e-17, global = 7.294058469e-20, cumulative = 2.446258771e-18
DILUPBiCGStab:  Solving for omega, Initial residual = 0.2239431058, Final residual = 1.153751796e-13, No Iterations 2
DILUPBiCGStab:  Solving for k, Initial residual = 0.2251936242, Final residual = 1.465535333e-13, No Iterations 2
ExecutionTime = 32.29 s  ClockTime = 34 s

surfaceFieldValue inMassFlow write:
    total faces   = 1225
    total area    = 3.0625

    sum(inlet) of phi = -3.0625

surfaceFieldValue outMassFlow write:
    total faces   = 1225
    total area    = 3.0625

    sum(outlet) of phi = 3.0625

forces forces_object write:
    Sum of forces
        Total    : (0 0 0)
        Pressure : (0 0 0)
        Viscous  : (0 0 0)
    Sum of moments
        Total    : (0 0 0)
        Pressure : (0 0 0)
        Viscous  : (0 0 0)
    writing force and moment files.

forceCoeffs forceCoeffs_object write:
    Coefficient	Total	Pressure	Viscous	Internal
    Cd:	0	0	0	0
    Cd(f):	0	0	0	0
    Cd(r):	0	0	0	0
    Cl:	0	0	0	0
    Cl(f):	0	0	0	0
    Cl(r):	0	0	0	0
    CmPitch:	0	0	0	0
    CmRoll:	0	0	0	0
    CmYaw:	0	0	0	0
    Cs:	0	0	0	0
    Cs(f):	0	0	0	0
    Cs(r):	0	0	0	0

    writing force and moment coefficient files.

--> FOAM Warning : 
    From virtual bool Foam::functionObjects::fieldSelection::checkSelection()
    in file functionObjects/fieldSelections/fieldSelection/fieldSelection.C at line 166
    Field epsilon not found
fieldMinMax minmaxdomain write:
    min(nut) = 0.0006572409621 in cell 37912 at location (-0.308 0.85 0.8)
    max(nut) = 0.0006666666667 in cell 0 at location (-0.583 -0.85 -0.85)
    min(U) = (1 -2.804970126e-16 -2.861886482e-16) in cell 18977 at location (-0.258 0.85 -0.45)
    max(U) = (1 2.08868483e-16 1.985708125e-16) in cell 19524 at location (0.342 0.55 -0.7)
    min(k) = 0.008140016097 in cell 42789 at location (0.842 0.8 0.85)
    max(k) = 0.01 in cell 0 at location (-0.583 -0.85 -0.85)
    min(p) = -6.091503242e-15 in cell 8398 at location (-0.508 -0.85 0.85)
    max(p) = 9.672104541e-16 in cell 34476 at location (1.092 0.85 -0.85)
    min(omega) = 12.38502568 in cell 42869 at location (1.092 0.8 0.85)
    max(omega) = 15 in cell 0 at location (-0.583 -0.85 -0.85)

Courant Number mean: 0.4 max: 0.4
deltaT = 0.01
Time = 0.18

inverseDistance : detected 1 mesh regions
    zone:0 nCells:42875  voxels:(35 35 35) bb:(-0.5830030311 -0.8750030311 -0.8750030311) (1.167003031 0.8750030311 0.8750030311)
Overset analysis : nCells : 42875
    calculated   : 42875
    interpolated : 0 (from local:0  mixed local/remote:0  remote:0)
    hole         : 0

Mesh Courant Number mean: 0 max: 0
PIMPLE: iteration 1
DILUPBiCGStab:  Solving for Ux, Initial residual = 0.1815927874, Final residual = 1.413229476e-12, No Iterations 2
DILUPBiCGStab:  Solving for Uy, Initial residual = 0.1172161942, Final residual = 9.089103847e-13, No Iterations 2
DILUPBiCGStab:  Solving for Uz, Initial residual = 0.1198389057, Final residual = 9.357930309e-13, No Iterations 2
DILUPBiCGStab:  Solving for p, Initial residual = 0.4457071289, Final residual = 0.004448030955, No Iterations 5
DILUPBiCGStab:  Solving for p, Initial residual = 0.004393789251, Final residual = 3.222848011e-05, No Iterations 29
DILUPBiCGStab:  Solving for p, Initial residual = 3.1302863e-05, Final residual = 8.169070202e-07, No Iterations 16
time step continuity errors : sum local = 1.520479074e-17, global = -6.521353152e-20, cumulative = 2.381045239e-18
DILUPBiCGStab:  Solving for p, Initial residual = 0.1391477662, Final residual = 0.00129634215, No Iterations 9
DILUPBiCGStab:  Solving for p, Initial residual = 0.00132123796, Final residual = 9.814828373e-06, No Iterations 23
DILUPBiCGStab:  Solving for p, Initial residual = 1.048959514e-05, Final residual = 9.430423051e-07, No Iterations 15
time step continuity errors : sum local = 1.494754975e-17, global = 1.209699878e-19, cumulative = 2.502015227e-18
DILUPBiCGStab:  Solving for p, Initial residual = 0.05022288692, Final residual = 0.0004949108963, No Iterations 14
[...]
DILUPBiCGStab:  Solving for p, Initial residual = 0.04951753676, Final residual = 0.0004528043747, No Iterations 18
DILUPBiCGStab:  Solving for p, Initial residual = 0.000435467615, Final residual = 4.273352134e-06, No Iterations 21
DILUPBiCGStab:  Solving for p, Initial residual = 4.219244211e-06, Final residual = 8.436605202e-07, No Iterations 4
time step continuity errors : sum local = 1.672931212e-17, global = -4.20328788e-19, cumulative = -5.510397855e-18
DILUPBiCGStab:  Solving for omega, Initial residual = 1.530243923e-05, Final residual = 1.118245869e-17, No Iterations 2
DILUPBiCGStab:  Solving for k, Initial residual = 2.113883803e-05, Final residual = 1.414226542e-17, No Iterations 2
ExecutionTime = 387.61 s  ClockTime = 423 s

surfaceFieldValue inMassFlow write:
    total faces   = 1225
    total area    = 3.0625

    sum(inlet) of phi = -3.0625

surfaceFieldValue outMassFlow write:
    total faces   = 1225
    total area    = 3.0625

    sum(outlet) of phi = 3.0625

forces forces_object write:
    Sum of forces
        Total    : (0 0 0)
        Pressure : (0 0 0)
        Viscous  : (0 0 0)
    Sum of moments
        Total    : (0 0 0)
        Pressure : (0 0 0)
        Viscous  : (0 0 0)
    writing force and moment files.

forceCoeffs forceCoeffs_object write:
    Coefficient	Total	Pressure	Viscous	Internal
    Cd:	0	0	0	0
    Cd(f):	0	0	0	0
    Cd(r):	0	0	0	0
    Cl:	0	0	0	0
    Cl(f):	0	0	0	0
    Cl(r):	0	0	0	0
    CmPitch:	0	0	0	0
    CmRoll:	0	0	0	0
    CmYaw:	0	0	0	0
    Cs:	0	0	0	0
    Cs(f):	0	0	0	0
    Cs(r):	0	0	0	0

    writing force and moment coefficient files.

--> FOAM Warning : 
    From virtual bool Foam::functionObjects::fieldSelection::checkSelection()
    in file functionObjects/fieldSelections/fieldSelection/fieldSelection.C at line 166
    Field epsilon not found
fieldMinMax minmaxdomain write:
    min(nut) = 0.0006034493239 in cell 42871 at location (1.142 0.85 0.8)
    max(nut) = 0.0006666666667 in cell 0 at location (-0.583 -0.85 -0.85)
    min(U) = (1 -1.287967829e-15 -6.313868188e-16) in cell 1781 at location (0.292 -0.65 -0.85)
    max(U) = (1 4.43548167e-16 7.575763951e-16) in cell 42844 at location (1.142 0.65 0.85)
    min(k) = 0.002865062798 in cell 42871 at location (1.142 0.85 0.8)
    max(k) = 0.01 in cell 0 at location (-0.583 -0.85 -0.85)
    min(p) = -1.479103695e-14 in cell 32272 at location (-0.558 0.7 0.75)
    max(p) = 2.868050457e-16 in cell 42761 at location (1.142 0.55 0.8)
    min(omega) = 4.747810105 in cell 42866 at location (1.142 0.8 0.8)
    max(omega) = 15 in cell 0 at location (-0.583 -0.85 -0.85)

Courant Number mean: 0.4 max: 0.4
deltaT = 0.01
Time = 1.97

inverseDistance : detected 1 mesh regions
    zone:0 nCells:42875  voxels:(35 35 35) bb:(-0.5830030311 -0.8750030311 -0.8750030311) (1.167003031 0.8750030311 0.8750030311)
Overset analysis : nCells : 42875
    calculated   : 42875
    interpolated : 0 (from local:0  mixed local/remote:0  remote:0)
    hole         : 0

Mesh Courant Number mean: 0 max: 0
PIMPLE: iteration 1
DILUPBiCGStab:  Solving for Ux, Initial residual = 0.08768782813, Final residual = 9.119601614e-13, No Iterations 2
DILUPBiCGStab:  Solving for Uy, Initial residual = 0.05403473993, Final residual = 3.87726607e-13, No Iterations 2
DILUPBiCGStab:  Solving for Uz, Initial residual = 0.05776003372, Final residual = 4.176688937e-13, No Iterations 2
DILUPBiCGStab:  Solving for p, Initial residual = 0.3276205548, Final residual = 0.003057925853, No Iterations 19
DILUPBiCGStab:  Solving for p, Initial residual = 0.003356443802, Final residual = 2.367155014e-05, No Iterations 21
DILUPBiCGStab:  Solving for p, Initial residual = 2.279657509e-05, Final residual = 8.819563835e-07, No Iterations 14
time step continuity errors : sum local = 1.649403563e-17, global = 1.13702528e-19, cumulative = -5.396695327e-18
DILUPBiCGStab:  Solving for p, Initial residual = 0.1241897647, Final residual = 0.00113295083, No Iterations 18
DILUPBiCGStab:  Solving for p, Initial residual = 0.001277666054, Final residual = 3.658017056e-06, No Iterations 21
DILUPBiCGStab:  Solving for p, Initial residual = 3.78782145e-06, Final residual = 9.048647882e-07, No Iterations 9
time step continuity errors : sum local = 1.565129982e-17, global = 1.102543611e-19, cumulative = -5.286440966e-18
DILUPBiCGStab:  Solving for p, Initial residual = 0.04819263086, Final residual = 0.000457647821, No Iterations 13
DILUPBiCGStab:  Solving for p, Initial residual = 0.0004624057501, Final residual = 4.606091708e-06, No Iterations 22
DILUPBiCGStab:  Solving for p, Initial residual = 4.726349352e-06, Final residual = 4.790405454e-07, No Iterations 3
time step continuity errors : sum local = 1.533164794e-17, global = 4.225357869e-20, cumulative = -5.244187388e-18
DILUPBiCGStab:  Solving for omega, Initial residual = 1.323969847e-05, Final residual = 1.088472478e-17, No Iterations 2
DILUPBiCGStab:  Solving for k, Initial residual = 1.843117241e-05, Final residual = 1.300556013e-17, No Iterations 2
ExecutionTime = 389.37 s  ClockTime = 425 s

surfaceFieldValue inMassFlow write:
    total faces   = 1225
    total area    = 3.0625

    sum(inlet) of phi = -3.0625

surfaceFieldValue outMassFlow write:
    total faces   = 1225
    total area    = 3.0625

    sum(outlet) of phi = 3.0625

forces forces_object write:
    Sum of forces
        Total    : (0 0 0)
        Pressure : (0 0 0)
        Viscous  : (0 0 0)
    Sum of moments
        Total    : (0 0 0)
        Pressure : (0 0 0)
        Viscous  : (0 0 0)
    writing force and moment files.

forceCoeffs forceCoeffs_object write:
    Coefficient	Total	Pressure	Viscous	Internal
    Cd:	0	0	0	0
    Cd(f):	0	0	0	0
    Cd(r):	0	0	0	0
    Cl:	0	0	0	0
    Cl(f):	0	0	0	0
    Cl(r):	0	0	0	0
    CmPitch:	0	0	0	0
    CmRoll:	0	0	0	0
    CmYaw:	0	0	0	0
    Cs:	0	0	0	0
    Cs(f):	0	0	0	0
    Cs(r):	0	0	0	0

    writing force and moment coefficient files.

--> FOAM Warning : 
    From virtual bool Foam::functionObjects::fieldSelection::checkSelection()
    in file functionObjects/fieldSelections/fieldSelection/fieldSelection.C at line 166
    Field epsilon not found
fieldMinMax minmaxdomain write:
    min(nut) = 0.0006033614712 in cell 42718 at location (1.142 0.45 0.85)
    max(nut) = 0.0006666666667 in cell 0 at location (-0.583 -0.85 -0.85)
    min(U) = (1 -1.173312862e-15 -1.264208495e-15) in cell 2305 at location (0.492 -0.85 -0.75)
    max(U) = (1 6.928490094e-16 5.038562089e-16) in cell 37870 at location (0.042 0.85 0.45)
    min(k) = 0.002863806228 in cell 42872 at location (1.142 0.8 0.85)
    max(k) = 0.01 in cell 0 at location (-0.583 -0.85 -0.85)
    min(p) = -6.737943781e-16 in cell 15567 at location (1.092 -0.25 -0.85)
    max(p) = 6.467478941e-15 in cell 12854 at location (-0.358 0.25 -0.1)
    min(omega) = 4.746418796 in cell 42866 at location (1.142 0.8 0.8)
    max(omega) = 15 in cell 0 at location (-0.583 -0.85 -0.85)

Courant Number mean: 0.4 max: 0.4
deltaT = 0.01
Time = 1.98

inverseDistance : detected 1 mesh regions
    zone:0 nCells:42875  voxels:(35 35 35) bb:(-0.5830030311 -0.8750030311 -0.8750030311) (1.167003031 0.8750030311 0.8750030311)
Overset analysis : nCells : 42875
    calculated   : 42875
    interpolated : 0 (from local:0  mixed local/remote:0  remote:0)
    hole         : 0

Mesh Courant Number mean: 0 max: 0
PIMPLE: iteration 1
DILUPBiCGStab:  Solving for Ux, Initial residual = 0.09070291528, Final residual = 9.257040578e-13, No Iterations 2
DILUPBiCGStab:  Solving for Uy, Initial residual = 0.05127817892, Final residual = 3.627004589e-13, No Iterations 2
DILUPBiCGStab:  Solving for Uz, Initial residual = 0.05592254042, Final residual = 3.979513592e-13, No Iterations 2
DILUPBiCGStab:  Solving for p, Initial residual = 0.4073629473, Final residual = 0.003821613331, No Iterations 18
DILUPBiCGStab:  Solving for p, Initial residual = 0.004177285181, Final residual = 4.163605965e-05, No Iterations 21
DILUPBiCGStab:  Solving for p, Initial residual = 3.731927565e-05, Final residual = 7.822268743e-07, No Iterations 19
time step continuity errors : sum local = 1.573484818e-17, global = 3.962745518e-20, cumulative = -5.204559932e-18
DILUPBiCGStab:  Solving for p, Initial residual = 0.1330245419, Final residual = 0.001273280932, No Iterations 7
DILUPBiCGStab:  Solving for p, Initial residual = 0.001277818634, Final residual = 1.034019691e-05, No Iterations 23
DILUPBiCGStab:  Solving for p, Initial residual = 1.060636079e-05, Final residual = 9.969845136e-07, No Iterations 18
time step continuity errors : sum local = 1.550692524e-17, global = -3.04067471e-21, cumulative = -5.207600607e-18
DILUPBiCGStab:  Solving for p, Initial residual = 0.04562451782, Final residual = 0.000438964575, No Iterations 9
DILUPBiCGStab:  Solving for p, Initial residual = 0.0004404398832, Final residual = 3.270377963e-06, No Iterations 22
DILUPBiCGStab:  Solving for p, Initial residual = 3.344583784e-06, Final residual = 8.414987349e-07, No Iterations 6
time step continuity errors : sum local = 1.535854568e-17, global = 4.424859517e-20, cumulative = -5.163352012e-18
DILUPBiCGStab:  Solving for omega, Initial residual = 1.138923516e-05, Final residual = 1.103295579e-17, No Iterations 2
DILUPBiCGStab:  Solving for k, Initial residual = 1.611295638e-05, Final residual = 1.208320163e-17, No Iterations 2
ExecutionTime = 391.17 s  ClockTime = 427 s

surfaceFieldValue inMassFlow write:
    total faces   = 1225
    total area    = 3.0625

    sum(inlet) of phi = -3.0625

surfaceFieldValue outMassFlow write:
    total faces   = 1225
    total area    = 3.0625

    sum(outlet) of phi = 3.0625

forces forces_object write:
    Sum of forces
        Total    : (0 0 0)
        Pressure : (0 0 0)
        Viscous  : (0 0 0)
    Sum of moments
        Total    : (0 0 0)
        Pressure : (0 0 0)
        Viscous  : (0 0 0)
    writing force and moment files.

forceCoeffs forceCoeffs_object write:
    Coefficient	Total	Pressure	Viscous	Internal
    Cd:	0	0	0	0
    Cd(f):	0	0	0	0
    Cd(r):	0	0	0	0
    Cl:	0	0	0	0
    Cl(f):	0	0	0	0
    Cl(r):	0	0	0	0
    CmPitch:	0	0	0	0
    CmRoll:	0	0	0	0
    CmYaw:	0	0	0	0
    Cs:	0	0	0	0
    Cs(f):	0	0	0	0
    Cs(r):	0	0	0	0

    writing force and moment coefficient files.

--> FOAM Warning : 
    From virtual bool Foam::functionObjects::fieldSelection::checkSelection()
    in file functionObjects/fieldSelections/fieldSelection/fieldSelection.C at line 166
    Field epsilon not found
fieldMinMax minmaxdomain write:
    min(nut) = 0.0006032806017 in cell 38842 at location (1.142 -0.5 0.85)
    max(nut) = 0.0006666666667 in cell 0 at location (-0.583 -0.85 -0.85)
    min(U) = (1 -1.203884682e-15 -1.82876e-15) in cell 7142 at location (1.092 -0.85 -0.8)
    max(U) = (1 6.159731472e-16 6.776982096e-16) in cell 37318 at location (0.242 0.65 0.4)
    min(k) = 0.002862684913 in cell 42866 at location (1.142 0.8 0.8)
    max(k) = 0.01 in cell 0 at location (-0.583 -0.85 -0.85)
    min(p) = -7.782453296e-15 in cell 4948 at location (-0.558 -0.3 0.05)
    max(p) = 1.075531789e-15 in cell 30740 at location (1.092 0.15 -0.4)
    min(omega) = 4.745196356 in cell 42866 at location (1.142 0.8 0.8)
    max(omega) = 15 in cell 0 at location (-0.583 -0.85 -0.85)

Courant Number mean: 0.4 max: 0.4
deltaT = 0.01
Time = 1.99

inverseDistance : detected 1 mesh regions
    zone:0 nCells:42875  voxels:(35 35 35) bb:(-0.5830030311 -0.8750030311 -0.8750030311) (1.167003031 0.8750030311 0.8750030311)
Overset analysis : nCells : 42875
    calculated   : 42875
    interpolated : 0 (from local:0  mixed local/remote:0  remote:0)
    hole         : 0

Mesh Courant Number mean: 0 max: 0
PIMPLE: iteration 1
DILUPBiCGStab:  Solving for Ux, Initial residual = 0.08468608163, Final residual = 8.442899456e-13, No Iterations 2
DILUPBiCGStab:  Solving for Uy, Initial residual = 0.05506854693, Final residual = 3.988232906e-13, No Iterations 2
DILUPBiCGStab:  Solving for Uz, Initial residual = 0.05662521506, Final residual = 4.076885827e-13, No Iterations 2
DILUPBiCGStab:  Solving for p, Initial residual = 0.4168669621, Final residual = 0.003820701885, No Iterations 8
DILUPBiCGStab:  Solving for p, Initial residual = 0.003778110829, Final residual = 3.746171239e-05, No Iterations 25
DILUPBiCGStab:  Solving for p, Initial residual = 3.713649589e-05, Final residual = 8.992163877e-07, No Iterations 13
time step continuity errors : sum local = 1.533616243e-17, global = -2.694166713e-19, cumulative = -5.432768683e-18
DILUPBiCGStab:  Solving for p, Initial residual = 0.136590471, Final residual = 0.001330842925, No Iterations 17
DILUPBiCGStab:  Solving for p, Initial residual = 0.001462944915, Final residual = 3.626141482e-06, No Iterations 20
DILUPBiCGStab:  Solving for p, Initial residual = 3.813222457e-06, Final residual = 9.391119351e-07, No Iterations 4
time step continuity errors : sum local = 1.500720362e-17, global = 1.312294964e-20, cumulative = -5.419645734e-18
DILUPBiCGStab:  Solving for p, Initial residual = 0.05354676143, Final residual = 0.0005194396209, No Iterations 18
DILUPBiCGStab:  Solving for p, Initial residual = 0.0004666302949, Final residual = 3.698214203e-06, No Iterations 22
DILUPBiCGStab:  Solving for p, Initial residual = 3.682497943e-06, Final residual = 9.872808312e-07, No Iterations 9
time step continuity errors : sum local = 1.52386324e-17, global = -6.343697842e-20, cumulative = -5.483082712e-18
DILUPBiCGStab:  Solving for omega, Initial residual = 9.726722141e-06, Final residual = 1.145216888e-17, No Iterations 2
DILUPBiCGStab:  Solving for k, Initial residual = 1.408194698e-05, Final residual = 1.138222683e-17, No Iterations 2
ExecutionTime = 392.77 s  ClockTime = 429 s

surfaceFieldValue inMassFlow write:
    total faces   = 1225
    total area    = 3.0625

    sum(inlet) of phi = -3.0625

surfaceFieldValue outMassFlow write:
    total faces   = 1225
    total area    = 3.0625

    sum(outlet) of phi = 3.0625

forces forces_object write:
    Sum of forces
        Total    : (0 0 0)
        Pressure : (0 0 0)
        Viscous  : (0 0 0)
    Sum of moments
        Total    : (0 0 0)
        Pressure : (0 0 0)
        Viscous  : (0 0 0)
    writing force and moment files.

forceCoeffs forceCoeffs_object write:
    Coefficient	Total	Pressure	Viscous	Internal
    Cd:	0	0	0	0
    Cd(f):	0	0	0	0
    Cd(r):	0	0	0	0
    Cl:	0	0	0	0
    Cl(f):	0	0	0	0
    Cl(r):	0	0	0	0
    CmPitch:	0	0	0	0
    CmRoll:	0	0	0	0
    CmYaw:	0	0	0	0
    Cs:	0	0	0	0
    Cs(f):	0	0	0	0
    Cs(r):	0	0	0	0

    writing force and moment coefficient files.

--> FOAM Warning : 
    From virtual bool Foam::functionObjects::fieldSelection::checkSelection()
    in file functionObjects/fieldSelections/fieldSelection/fieldSelection.C at line 166
    Field epsilon not found
fieldMinMax minmaxdomain write:
    min(nut) = 0.0006032064269 in cell 38842 at location (1.142 -0.5 0.85)
    max(nut) = 0.0006666666667 in cell 0 at location (-0.583 -0.85 -0.85)
    min(U) = (1 -1.249953455e-15 -1.375558661e-15) in cell 2305 at location (0.492 -0.85 -0.75)
    max(U) = (1 6.300900875e-16 7.035828263e-16) in cell 37318 at location (0.242 0.65 0.4)
    min(k) = 0.002861688285 in cell 42866 at location (1.142 0.8 0.8)
    max(k) = 0.01 in cell 0 at location (-0.583 -0.85 -0.85)
    min(p) = -7.119288911e-15 in cell 33743 at location (-0.508 0.65 0.85)
    max(p) = 1.07800317e-15 in cell 29323 at location (0.742 -0.85 0.85)
    min(omega) = 4.744127644 in cell 42866 at location (1.142 0.8 0.8)
    max(omega) = 15 in cell 0 at location (-0.583 -0.85 -0.85)

Courant Number mean: 0.4 max: 0.4
deltaT = 0.01
Time = 2

inverseDistance : detected 1 mesh regions
    zone:0 nCells:42875  voxels:(35 35 35) bb:(-0.5830030311 -0.8750030311 -0.8750030311) (1.167003031 0.8750030311 0.8750030311)
Overset analysis : nCells : 42875
    calculated   : 42875
    interpolated : 0 (from local:0  mixed local/remote:0  remote:0)
    hole         : 0

Mesh Courant Number mean: 0 max: 0
PIMPLE: iteration 1
DILUPBiCGStab:  Solving for Ux, Initial residual = 0.07934292048, Final residual = 1.25464491e-12, No Iterations 2
DILUPBiCGStab:  Solving for Uy, Initial residual = 0.05574232944, Final residual = 4.047360378e-13, No Iterations 2
DILUPBiCGStab:  Solving for Uz, Initial residual = 0.05682574627, Final residual = 4.126551778e-13, No Iterations 2
DILUPBiCGStab:  Solving for p, Initial residual = 0.419988787, Final residual = 0.003940000629, No Iterations 10
DILUPBiCGStab:  Solving for p, Initial residual = 0.004140417748, Final residual = 3.889965e-05, No Iterations 21
DILUPBiCGStab:  Solving for p, Initial residual = 3.73017318e-05, Final residual = 7.152542843e-07, No Iterations 20
time step continuity errors : sum local = 1.536465816e-17, global = 2.824229518e-19, cumulative = -5.20065976e-18
DILUPBiCGStab:  Solving for p, Initial residual = 0.1354611671, Final residual = 0.001245109487, No Iterations 7
DILUPBiCGStab:  Solving for p, Initial residual = 0.001255669671, Final residual = 1.154941041e-05, No Iterations 24
DILUPBiCGStab:  Solving for p, Initial residual = 1.232444818e-05, Final residual = 9.322475671e-07, No Iterations 16
time step continuity errors : sum local = 1.513118984e-17, global = 1.759873541e-19, cumulative = -5.024672406e-18
DILUPBiCGStab:  Solving for p, Initial residual = 0.0450085767, Final residual = 0.0004330081581, No Iterations 7
DILUPBiCGStab:  Solving for p, Initial residual = 0.0004326963582, Final residual = 3.574290855e-06, No Iterations 26
DILUPBiCGStab:  Solving for p, Initial residual = 3.543353547e-06, Final residual = 9.681318769e-07, No Iterations 12
time step continuity errors : sum local = 1.517279816e-17, global = 2.432180615e-19, cumulative = -4.781454345e-18
DILUPBiCGStab:  Solving for omega, Initial residual = 8.241005336e-06, Final residual = 1.236617198e-17, No Iterations 2
DILUPBiCGStab:  Solving for k, Initial residual = 1.223617008e-05, Final residual = 1.089668925e-17, No Iterations 2
ExecutionTime = 395.92 s  ClockTime = 434 s

surfaceFieldValue inMassFlow write:
    total faces   = 1225
    total area    = 3.0625

    sum(inlet) of phi = -3.0625

surfaceFieldValue outMassFlow write:
    total faces   = 1225
    total area    = 3.0625

    sum(outlet) of phi = 3.0625

forces forces_object write:
    Sum of forces
        Total    : (0 0 0)
        Pressure : (0 0 0)
        Viscous  : (0 0 0)
    Sum of moments
        Total    : (0 0 0)
        Pressure : (0 0 0)
        Viscous  : (0 0 0)
    writing force and moment files.

forceCoeffs forceCoeffs_object write:
    Coefficient	Total	Pressure	Viscous	Internal
    Cd:	0	0	0	0
    Cd(f):	0	0	0	0
    Cd(r):	0	0	0	0
    Cl:	0	0	0	0
    Cl(f):	0	0	0	0
    Cl(r):	0	0	0	0
    CmPitch:	0	0	0	0
    CmRoll:	0	0	0	0
    CmYaw:	0	0	0	0
    Cs:	0	0	0	0
    Cs(f):	0	0	0	0
    Cs(r):	0	0	0	0

    writing force and moment coefficient files.

--> FOAM Warning : 
    From virtual bool Foam::functionObjects::fieldSelection::checkSelection()
    in file functionObjects/fieldSelections/fieldSelection/fieldSelection.C at line 166
    Field epsilon not found
fieldMinMax minmaxdomain write:
    min(nut) = 0.0006031386433 in cell 38842 at location (1.142 -0.5 0.85)
    max(nut) = 0.0006666666667 in cell 0 at location (-0.583 -0.85 -0.85)
    min(U) = (1 -1.128746712e-15 -9.648571283e-16) in cell 2608 at location (0.492 -0.8 -0.75)
    max(U) = (1 6.709107302e-16 4.270178204e-16) in cell 37870 at location (0.042 0.85 0.45)
    min(k) = 0.002860806179 in cell 42866 at location (1.142 0.8 0.8)
    max(k) = 0.01 in cell 0 at location (-0.583 -0.85 -0.85)
    min(p) = -3.178152473e-15 in cell 285 at location (-0.558 -0.85 -0.35)
    max(p) = 3.360484178e-15 in cell 16290 at location (-0.308 0.3 0)
    min(omega) = 4.743198286 in cell 42866 at location (1.142 0.8 0.8)
    max(omega) = 15 in cell 0 at location (-0.583 -0.85 -0.85)

yPlus yplus write:
    writing field yPlus
End

